/*--------------------------------*- C++ -*----------------------------------*\
| =========                 |                                                 |
| \\      /  F ield         | OpenFOAM: The Open Source CFD Toolbox           |
|  \\    /   O peration     | Version:  2106                                  |
|   \\  /    A nd           | Website:  www.openfoam.com                      |
|    \\/     M anipulation  |                                                 |
\*---------------------------------------------------------------------------*/
FoamFile
{
    version     2.0;
    format      ascii;
    arch        "LSB;label=32;scalar=64";
    class       volScalarField;
    location    "200/fuel";
    object      volPower;
}
// * * * * * * * * * * * * * * * * * * * * * * * * * * * * * * * * * * * * * //

dimensions      [1 -1 -3 0 0 0 0];

internalField   nonuniform List<scalar> 
16000
(
35337223
35337223
35337223
35337223
38600644
35337223
35337223
35337223
38600644
79244899
35337223
38600644
35337223
38600644
35337223
35337223
35337223
38600644
79244899
35337223
38600644
35337223
38600644
79244899
79244899
73715359
35337223
38600644
35337223
38600644
35337223
35337223
35337223
38600644
79244899
35337223
38600644
35337223
38600644
79244899
79244899
73715359
35337223
38600644
35337223
38600644
1.0007378e+08
79244899
73715359
79244899
73715359
35337223
38600644
35337223
38600644
35337223
35337223
35337223
38600644
79244899
35337223
38600644
35337223
38600644
79244899
79244899
73715359
35337223
38600644
35337223
38600644
1.0007378e+08
79244899
73715359
79244899
73715359
35337223
38600644
35337223
38600644
1.0007378e+08
1.0007378e+08
1.0311331e+08
79244899
73715359
79244899
73715359
35337223
38600644
35337223
38600644
31566402
35337223
35337223
38600644
79244899
35337223
38600644
35337223
38600644
79244899
79244899
73715359
35337223
38600644
35337223
38600644
1.0007378e+08
79244899
73715359
79244899
73715359
35337223
38600644
35337223
38600644
1.0007378e+08
1.0007378e+08
1.0311331e+08
79244899
73715359
79244899
73715359
35337223
38600644
35337223
38600644
1.2445394e+08
1.0007378e+08
1.0311331e+08
1.0007378e+08
1.0311331e+08
79244899
73715359
79244899
73715359
35337223
38600644
35337223
38600644
31566402
31566402
31566402
38615217
79244899
35337223
38600644
35337223
38600644
79244899
79244899
73715359
35337223
38600644
35337223
38600644
1.0007378e+08
79244899
73715359
79244899
73715359
35337223
38600644
35337223
38600644
1.0007378e+08
1.0007378e+08
1.0311331e+08
79244899
73715359
79244899
73715359
35337223
38600644
35337223
38600644
1.2445394e+08
1.0007378e+08
1.0311331e+08
1.0007378e+08
1.0311331e+08
79244899
73715359
79244899
73715359
35337223
38600644
35337223
38600644
1.2445394e+08
1.2445394e+08
1.2123797e+08
1.0007378e+08
1.0311331e+08
1.0007378e+08
1.0311331e+08
79244899
73715359
79244899
73715359
35337223
38600644
35337223
38600644
31566402
31566402
31566402
38615217
72788574
31566402
38615217
31566402
38615217
79244899
79244899
73715359
35337223
38600644
31566402
38600644
1.0007378e+08
79244899
73715359
79244899
73715359
35337223
38600644
35337223
38600644
1.0007378e+08
1.0007378e+08
1.0311331e+08
79244899
73715359
79244899
73715359
35337223
38600644
35337223
38600644
1.2445394e+08
1.0007378e+08
1.0311331e+08
1.0007378e+08
1.0311331e+08
79244899
73715359
79244899
73715359
35337223
38600644
35337223
38600644
1.2445394e+08
1.2445394e+08
1.2123797e+08
1.0007378e+08
1.0311331e+08
1.0007378e+08
1.0311331e+08
79244899
73715359
79244899
73715359
35337223
38600644
35337223
38600644
1.7114017e+08
1.2445394e+08
1.2123797e+08
1.2445394e+08
1.2123797e+08
1.0007378e+08
1.0311331e+08
1.0007378e+08
1.0311331e+08
79244899
73715359
79244899
73715359
35337223
38600644
40564814
38600644
31566402
38615217
31566402
72788574
31566402
38615217
31566402
38615217
72788574
72788574
62976824
31566402
38615217
31566402
38615217
1.0007378e+08
79244899
73715359
79244899
73715359
31566402
38600644
31566402
38615217
1.0007378e+08
1.0007378e+08
1.0311331e+08
79244899
73715359
79244899
73715359
35337223
38600644
35337223
38600644
1.2445394e+08
1.0007378e+08
1.0311331e+08
1.0007378e+08
1.0311331e+08
79244899
73715359
79244899
73715359
35337223
38600644
35337223
38600644
1.2445394e+08
1.2445394e+08
1.2123797e+08
1.0007378e+08
1.0311331e+08
1.0007378e+08
1.0311331e+08
79244899
73715359
79244899
73715359
35337223
38600644
35337223
38600644
1.7114017e+08
1.2445394e+08
1.2123797e+08
1.2445394e+08
1.2123797e+08
1.0007378e+08
1.0311331e+08
1.0007378e+08
1.0311331e+08
79244899
73715359
79244899
73715359
35337223
38600644
40564814
38600644
1.7114017e+08
1.7114017e+08
1.5854784e+08
1.2445394e+08
1.2123797e+08
1.2445394e+08
1.2123797e+08
1.0007378e+08
1.0311331e+08
1.0007378e+08
1.0311331e+08
79244899
73715359
79244899
73715359
40564814
38600644
40564814
40355864
62976824
38615217
31566402
38615217
31566402
31566402
72788574
72788574
62976824
31566402
38615217
31566402
38615217
95969848
72788574
62976824
72788574
62976824
31566402
38615217
31566402
38615217
1.0007378e+08
1.0007378e+08
1.0311331e+08
79244899
73715359
72788574
73715359
31566402
38615217
35337223
38615217
1.2445394e+08
1.0007378e+08
1.0311331e+08
1.0007378e+08
1.0311331e+08
79244899
73715359
79244899
73715359
35337223
38600644
35337223
38600644
1.2445394e+08
1.2445394e+08
1.2123797e+08
1.0007378e+08
1.0311331e+08
1.0007378e+08
1.0311331e+08
79244899
73715359
79244899
73715359
35337223
38600644
35337223
38600644
1.7114017e+08
1.2445394e+08
1.2123797e+08
1.2445394e+08
1.2123797e+08
1.0007378e+08
1.0311331e+08
1.0007378e+08
1.0311331e+08
79244899
73715359
79244899
73715359
35337223
38600644
40564814
38600644
1.7114017e+08
1.7114017e+08
1.5854784e+08
1.2445394e+08
1.2123797e+08
1.2445394e+08
1.2123797e+08
1.0007378e+08
1.0311331e+08
1.0007378e+08
1.0311331e+08
79244899
73715359
79244899
73715359
40564814
38600644
40564814
40355864
1.6687835e+08
1.7114017e+08
1.5854784e+08
1.7114017e+08
1.5854784e+08
1.2445394e+08
1.2123797e+08
1.2445394e+08
1.2123797e+08
1.0007378e+08
1.0311331e+08
1.0007378e+08
1.0311331e+08
79244899
73715359
72046126
73715359
40564814
40355864
40564814
40355864
72788574
62976824
72788574
38615217
31566402
31566402
38615217
38615217
31566402
31566402
95969848
72788574
62976824
72788574
62976824
31566402
38615217
31566402
38615217
95969848
95969848
1.0289321e+08
72788574
62976824
72788574
62976824
31566402
38615217
31566402
38615217
1.2445394e+08
1.0007378e+08
1.0311331e+08
1.0007378e+08
1.0311331e+08
72788574
73715359
72788574
62976824
35337223
38615217
35337223
38600644
1.2445394e+08
1.2445394e+08
1.2123797e+08
1.0007378e+08
1.0311331e+08
1.0007378e+08
1.0311331e+08
79244899
73715359
79244899
73715359
35337223
38600644
35337223
38600644
1.7114017e+08
1.2445394e+08
1.2123797e+08
1.2445394e+08
1.2123797e+08
1.0007378e+08
1.0311331e+08
1.0007378e+08
1.0311331e+08
79244899
73715359
79244899
73715359
35337223
38600644
40564814
38600644
1.7114017e+08
1.7114017e+08
1.5854784e+08
1.2445394e+08
1.2123797e+08
1.2445394e+08
1.2123797e+08
1.0007378e+08
1.0311331e+08
1.0007378e+08
1.0311331e+08
79244899
73715359
79244899
73715359
40564814
38600644
40564814
40355864
1.6687835e+08
1.7114017e+08
1.5854784e+08
1.7114017e+08
1.5854784e+08
1.2445394e+08
1.2123797e+08
1.2445394e+08
1.2123797e+08
1.0007378e+08
1.0311331e+08
1.0007378e+08
1.0311331e+08
79244899
73715359
72046126
73715359
40564814
40355864
40564814
40355864
1.6687835e+08
1.6687835e+08
1.7292492e+08
1.7114017e+08
1.5854784e+08
1.7114017e+08
1.5854784e+08
1.2445394e+08
1.2123797e+08
1.2445394e+08
1.2123797e+08
1.0007378e+08
1.0311331e+08
1.0007378e+08
1.0311331e+08
72046126
73715359
72046126
78255634
40564814
40355864
40564814
40355864
95969848
62976824
72788574
62976824
72788574
72788574
38615217
38615217
31566402
31566402
38615217
38615217
31566402
31566402
31566402
95969848
95969848
1.0289321e+08
72788574
62976824
72788574
62976824
31566402
38615217
31566402
38615217
1.320322e+08
95969848
1.0289321e+08
95969848
1.0289321e+08
72788574
62976824
72788574
62976824
31566402
38615217
31566402
38615217
1.2445394e+08
1.2445394e+08
1.2123797e+08
1.0007378e+08
1.0311331e+08
95969848
1.0311331e+08
72788574
62976824
79244899
62976824
35337223
38600644
35337223
38600644
1.7114017e+08
1.2445394e+08
1.2123797e+08
1.2445394e+08
1.2123797e+08
1.0007378e+08
1.0311331e+08
1.0007378e+08
1.0311331e+08
79244899
73715359
79244899
73715359
35337223
38600644
40564814
38600644
1.7114017e+08
1.7114017e+08
1.5854784e+08
1.2445394e+08
1.2123797e+08
1.2445394e+08
1.2123797e+08
1.0007378e+08
1.0311331e+08
1.0007378e+08
1.0311331e+08
79244899
73715359
79244899
73715359
40564814
38600644
40564814
40355864
1.6687835e+08
1.7114017e+08
1.5854784e+08
1.7114017e+08
1.5854784e+08
1.2445394e+08
1.2123797e+08
1.2445394e+08
1.2123797e+08
1.0007378e+08
1.0311331e+08
1.0007378e+08
1.0311331e+08
79244899
73715359
72046126
73715359
40564814
40355864
40564814
40355864
1.6687835e+08
1.6687835e+08
1.7292492e+08
1.7114017e+08
1.5854784e+08
1.7114017e+08
1.5854784e+08
1.2445394e+08
1.2123797e+08
1.2445394e+08
1.2123797e+08
1.0007378e+08
1.0311331e+08
1.0007378e+08
1.0311331e+08
72046126
73715359
72046126
78255634
40564814
40355864
40564814
40355864
1.9148004e+08
1.6687835e+08
1.7292492e+08
1.6687835e+08
1.7292492e+08
1.7114017e+08
1.5854784e+08
1.7114017e+08
1.5854784e+08
1.2445394e+08
1.2123797e+08
1.2445394e+08
1.2123797e+08
1.0007378e+08
1.0311331e+08
99733564
1.0311331e+08
72046126
78255634
72046126
78255634
40564814
40355864
40564814
40355864
95969848
1.0289321e+08
95969848
62976824
72788574
72788574
62976824
62976824
72788574
72788574
38615217
38615217
31566402
31566402
31566402
38615217
38615217
38615217
31566402
31566402
31566402
1.320322e+08
95969848
1.0289321e+08
95969848
1.0289321e+08
72788574
62976824
72788574
62976824
31566402
38615217
31566402
38615217
1.320322e+08
1.320322e+08
1.1545431e+08
95969848
1.0289321e+08
95969848
1.0289321e+08
72788574
62976824
72788574
62976824
31566402
38615217
31566402
38615217
1.7114017e+08
1.2445394e+08
1.2123797e+08
1.2445394e+08
1.2123797e+08
95969848
1.0311331e+08
95969848
1.0289321e+08
79244899
62976824
79244899
73715359
35337223
38600644
40564814
38600644
1.7114017e+08
1.7114017e+08
1.5854784e+08
1.2445394e+08
1.2123797e+08
1.2445394e+08
1.2123797e+08
1.0007378e+08
1.0311331e+08
1.0007378e+08
1.0311331e+08
79244899
73715359
79244899
73715359
40564814
38600644
40564814
40355864
1.6687835e+08
1.7114017e+08
1.5854784e+08
1.7114017e+08
1.5854784e+08
1.2445394e+08
1.2123797e+08
1.2445394e+08
1.2123797e+08
1.0007378e+08
1.0311331e+08
1.0007378e+08
1.0311331e+08
79244899
73715359
72046126
73715359
40564814
40355864
40564814
40355864
1.6687835e+08
1.6687835e+08
1.7292492e+08
1.7114017e+08
1.5854784e+08
1.7114017e+08
1.5854784e+08
1.2445394e+08
1.2123797e+08
1.2445394e+08
1.2123797e+08
1.0007378e+08
1.0311331e+08
1.0007378e+08
1.0311331e+08
72046126
73715359
72046126
78255634
40564814
40355864
40564814
40355864
1.9148004e+08
1.6687835e+08
1.7292492e+08
1.6687835e+08
1.7292492e+08
1.7114017e+08
1.5854784e+08
1.7114017e+08
1.5854784e+08
1.2445394e+08
1.2123797e+08
1.2445394e+08
1.2123797e+08
1.0007378e+08
1.0311331e+08
99733564
1.0311331e+08
72046126
78255634
72046126
78255634
40564814
40355864
40564814
40355864
1.9148004e+08
1.9148004e+08
1.9793894e+08
1.6687835e+08
1.7292492e+08
1.6687835e+08
1.7292492e+08
1.7114017e+08
1.5854784e+08
1.7114017e+08
1.5854784e+08
1.2445394e+08
1.2123797e+08
1.2445394e+08
1.2123797e+08
99733564
1.0311331e+08
99733564
1.0454718e+08
72046126
78255634
72046126
78255634
40564814
40355864
40564814
40355864
1.320322e+08
1.0289321e+08
95969848
1.0289321e+08
95969848
95969848
62976824
62976824
72788574
72788574
62976824
62976824
72788574
72788574
72788574
38615217
38615217
38615217
31566402
31566402
31566402
38615217
38615217
38615217
38615217
31566402
31566402
31566402
1.320322e+08
1.320322e+08
1.1545431e+08
95969848
1.0289321e+08
95969848
1.0289321e+08
72788574
62976824
72788574
62976824
31566402
38615217
31566402
38615217
1.5255634e+08
1.320322e+08
1.1545431e+08
1.320322e+08
1.1545431e+08
95969848
1.0289321e+08
95969848
1.0289321e+08
72788574
62976824
72788574
62976824
31566402
38615217
34015203
38615217
1.7114017e+08
1.7114017e+08
1.5854784e+08
1.2445394e+08
1.2123797e+08
1.320322e+08
1.2123797e+08
95969848
1.0289321e+08
1.0007378e+08
1.0289321e+08
79244899
73715359
79244899
73715359
40564814
38600644
40564814
40355864
1.6687835e+08
1.7114017e+08
1.5854784e+08
1.7114017e+08
1.5854784e+08
1.2445394e+08
1.2123797e+08
1.2445394e+08
1.2123797e+08
1.0007378e+08
1.0311331e+08
1.0007378e+08
1.0311331e+08
79244899
73715359
72046126
73715359
40564814
40355864
40564814
40355864
1.6687835e+08
1.6687835e+08
1.7292492e+08
1.7114017e+08
1.5854784e+08
1.7114017e+08
1.5854784e+08
1.2445394e+08
1.2123797e+08
1.2445394e+08
1.2123797e+08
1.0007378e+08
1.0311331e+08
1.0007378e+08
1.0311331e+08
72046126
73715359
72046126
78255634
40564814
40355864
40564814
40355864
1.9148004e+08
1.6687835e+08
1.7292492e+08
1.6687835e+08
1.7292492e+08
1.7114017e+08
1.5854784e+08
1.7114017e+08
1.5854784e+08
1.2445394e+08
1.2123797e+08
1.2445394e+08
1.2123797e+08
1.0007378e+08
1.0311331e+08
99733564
1.0311331e+08
72046126
78255634
72046126
78255634
40564814
40355864
40564814
40355864
1.9148004e+08
1.9148004e+08
1.9793894e+08
1.6687835e+08
1.7292492e+08
1.6687835e+08
1.7292492e+08
1.7114017e+08
1.5854784e+08
1.7114017e+08
1.5854784e+08
1.2445394e+08
1.2123797e+08
1.2445394e+08
1.2123797e+08
99733564
1.0311331e+08
99733564
1.0454718e+08
72046126
78255634
72046126
78255634
40564814
40355864
40564814
40355864
2.1041091e+08
1.9148004e+08
1.9793894e+08
1.9148004e+08
1.9793894e+08
1.6687835e+08
1.7292492e+08
1.6687835e+08
1.7292492e+08
1.7114017e+08
1.5854784e+08
1.7114017e+08
1.5854784e+08
1.2445394e+08
1.2123797e+08
1.2367652e+08
1.2123797e+08
99733564
1.0454718e+08
99733564
1.0454718e+08
72046126
78255634
72046126
78255634
40564814
40355864
40564814
40355864
1.320322e+08
1.1545431e+08
1.320322e+08
1.0289321e+08
95969848
95969848
1.0289321e+08
1.0289321e+08
95969848
95969848
62976824
62976824
72788574
72788574
72788574
62976824
62976824
62976824
72788574
72788574
72788574
38615217
38615217
38615217
38615217
31566402
31566402
31566402
38615217
38615217
38615217
35454412
31566402
34015203
34015203
34015203
1.5255634e+08
1.320322e+08
1.1545431e+08
1.320322e+08
1.1545431e+08
95969848
1.0289321e+08
95969848
1.0289321e+08
72788574
62976824
72788574
62976824
31566402
38615217
34015203
38615217
1.5255634e+08
1.5255634e+08
1.5046188e+08
1.320322e+08
1.1545431e+08
1.320322e+08
1.1545431e+08
95969848
1.0289321e+08
95969848
1.0289321e+08
72788574
62976824
72788574
62976824
34015203
38615217
34015203
35454412
1.6687835e+08
1.7114017e+08
1.5854784e+08
1.7114017e+08
1.5854784e+08
1.320322e+08
1.2123797e+08
1.320322e+08
1.1545431e+08
1.0007378e+08
1.0289321e+08
1.0007378e+08
1.0311331e+08
79244899
73715359
72046126
73715359
40564814
40355864
40564814
40355864
1.6687835e+08
1.6687835e+08
1.7292492e+08
1.7114017e+08
1.5854784e+08
1.7114017e+08
1.5854784e+08
1.2445394e+08
1.2123797e+08
1.2445394e+08
1.2123797e+08
1.0007378e+08
1.0311331e+08
1.0007378e+08
1.0311331e+08
72046126
73715359
72046126
78255634
40564814
40355864
40564814
40355864
1.9148004e+08
1.6687835e+08
1.7292492e+08
1.6687835e+08
1.7292492e+08
1.7114017e+08
1.5854784e+08
1.7114017e+08
1.5854784e+08
1.2445394e+08
1.2123797e+08
1.2445394e+08
1.2123797e+08
1.0007378e+08
1.0311331e+08
99733564
1.0311331e+08
72046126
78255634
72046126
78255634
40564814
40355864
40564814
40355864
1.9148004e+08
1.9148004e+08
1.9793894e+08
1.6687835e+08
1.7292492e+08
1.6687835e+08
1.7292492e+08
1.7114017e+08
1.5854784e+08
1.7114017e+08
1.5854784e+08
1.2445394e+08
1.2123797e+08
1.2445394e+08
1.2123797e+08
99733564
1.0311331e+08
99733564
1.0454718e+08
72046126
78255634
72046126
78255634
40564814
40355864
40564814
40355864
2.1041091e+08
1.9148004e+08
1.9793894e+08
1.9148004e+08
1.9793894e+08
1.6687835e+08
1.7292492e+08
1.6687835e+08
1.7292492e+08
1.7114017e+08
1.5854784e+08
1.7114017e+08
1.5854784e+08
1.2445394e+08
1.2123797e+08
1.2367652e+08
1.2123797e+08
99733564
1.0454718e+08
99733564
1.0454718e+08
72046126
78255634
72046126
78255634
40564814
40355864
40564814
40355864
2.1041091e+08
2.1041091e+08
2.0662904e+08
1.9148004e+08
1.9793894e+08
1.9148004e+08
1.9793894e+08
1.6687835e+08
1.7292492e+08
1.6687835e+08
1.7292492e+08
1.7114017e+08
1.5854784e+08
1.7114017e+08
1.5854784e+08
1.2367652e+08
1.2123797e+08
1.2367652e+08
1.2937707e+08
99733564
1.0454718e+08
99733564
1.0454718e+08
72046126
78255634
72046126
78255634
40564814
40355864
40564814
40355864
1.5255634e+08
1.1545431e+08
1.320322e+08
1.1545431e+08
1.320322e+08
1.320322e+08
1.0289321e+08
1.0289321e+08
95969848
95969848
1.0289321e+08
1.0289321e+08
95969848
95969848
95969848
62976824
62976824
62976824
72788574
72788574
72788574
62976824
62976824
62976824
62976824
72788574
72788574
72788574
38615217
38615217
38615217
35454412
31566402
34015203
34015203
34015203
35454412
35454412
35454412
35454412
34015203
34015203
34015203
34015203
1.5255634e+08
1.5255634e+08
1.5046188e+08
1.320322e+08
1.1545431e+08
1.320322e+08
1.1545431e+08
95969848
1.0289321e+08
95969848
1.0289321e+08
72788574
62976824
72788574
62976824
34015203
38615217
34015203
1.6360642e+08
1.5255634e+08
1.5046188e+08
1.5255634e+08
1.5046188e+08
1.320322e+08
1.1545431e+08
1.320322e+08
1.1545431e+08
95969848
1.0289321e+08
95969848
1.0289321e+08
72788574
62976824
71615858
62976824
34015203
35454412
34015203
35454412
1.6687835e+08
1.6687835e+08
1.7292492e+08
1.7114017e+08
1.5854784e+08
1.5255634e+08
1.5854784e+08
1.320322e+08
1.1545431e+08
1.2445394e+08
1.1545431e+08
1.0007378e+08
1.0311331e+08
1.0007378e+08
1.0311331e+08
72046126
73715359
72046126
78255634
40564814
40355864
34015203
40355864
1.9148004e+08
1.6687835e+08
1.7292492e+08
1.6687835e+08
1.7292492e+08
1.7114017e+08
1.5854784e+08
1.7114017e+08
1.5854784e+08
1.2445394e+08
1.2123797e+08
1.2445394e+08
1.2123797e+08
1.0007378e+08
1.0311331e+08
99733564
1.0311331e+08
72046126
78255634
72046126
78255634
40564814
40355864
40564814
40355864
1.9148004e+08
1.9148004e+08
1.9793894e+08
1.6687835e+08
1.7292492e+08
1.6687835e+08
1.7292492e+08
1.7114017e+08
1.5854784e+08
1.7114017e+08
1.5854784e+08
1.2445394e+08
1.2123797e+08
1.2445394e+08
1.2123797e+08
99733564
1.0311331e+08
99733564
1.0454718e+08
72046126
78255634
72046126
78255634
40564814
40355864
40564814
40355864
2.1041091e+08
1.9148004e+08
1.9793894e+08
1.9148004e+08
1.9793894e+08
1.6687835e+08
1.7292492e+08
1.6687835e+08
1.7292492e+08
1.7114017e+08
1.5854784e+08
1.7114017e+08
1.5854784e+08
1.2445394e+08
1.2123797e+08
1.2367652e+08
1.2123797e+08
99733564
1.0454718e+08
99733564
1.0454718e+08
72046126
78255634
72046126
78255634
40564814
40355864
40564814
40355864
2.1041091e+08
2.1041091e+08
2.0662904e+08
1.9148004e+08
1.9793894e+08
1.9148004e+08
1.9793894e+08
1.6687835e+08
1.7292492e+08
1.6687835e+08
1.7292492e+08
1.7114017e+08
1.5854784e+08
1.7114017e+08
1.5854784e+08
1.2367652e+08
1.2123797e+08
1.2367652e+08
1.2937707e+08
99733564
1.0454718e+08
99733564
1.0454718e+08
72046126
78255634
72046126
78255634
40564814
40355864
40564814
40355864
2.282229e+08
2.1041091e+08
2.0662904e+08
2.1041091e+08
2.0662904e+08
1.9148004e+08
1.9793894e+08
1.9148004e+08
1.9793894e+08
1.6687835e+08
1.7292492e+08
1.6687835e+08
1.7292492e+08
1.7114017e+08
1.5854784e+08
1.6097912e+08
1.5854784e+08
1.2367652e+08
1.2937707e+08
1.2367652e+08
1.2937707e+08
99733564
1.0454718e+08
99733564
1.0454718e+08
72046126
78255634
72046126
78255634
40564814
40355864
40355864
1.5255634e+08
1.5046188e+08
1.5255634e+08
1.1545431e+08
1.320322e+08
1.320322e+08
1.1545431e+08
1.1545431e+08
1.320322e+08
1.320322e+08
1.0289321e+08
1.0289321e+08
95969848
95969848
95969848
1.0289321e+08
1.0289321e+08
1.0289321e+08
95969848
95969848
95969848
62976824
62976824
62976824
62976824
72788574
72788574
72788574
62976824
62976824
62976824
70210318
72788574
71615858
71615858
71615858
35454412
35454412
35454412
35454412
34015203
34015203
34015203
34015203
35454412
35454412
35454412
35454412
34015203
34015203
34015203
1.6360642e+08
1.5255634e+08
1.5046188e+08
1.5255634e+08
1.5046188e+08
1.320322e+08
1.1545431e+08
1.320322e+08
1.1545431e+08
95969848
1.0289321e+08
95969848
1.0289321e+08
72788574
62976824
71615858
62976824
34015203
34015203
1.6360642e+08
1.6360642e+08
1.5692362e+08
1.5255634e+08
1.5046188e+08
1.5255634e+08
1.5046188e+08
1.320322e+08
1.1545431e+08
1.320322e+08
1.1545431e+08
95969848
1.0289321e+08
95969848
1.0289321e+08
71615858
62976824
71615858
70210318
34015203
35454412
34015203
35454412
1.9148004e+08
1.6687835e+08
1.7292492e+08
1.6687835e+08
1.7292492e+08
1.5255634e+08
1.5854784e+08
1.5255634e+08
1.5046188e+08
1.2445394e+08
1.1545431e+08
1.2445394e+08
1.2123797e+08
1.0007378e+08
1.0311331e+08
99733564
1.0311331e+08
72046126
78255634
72046126
78255634
34015203
40355864
34015203
35454412
1.9148004e+08
1.9148004e+08
1.9793894e+08
1.6687835e+08
1.7292492e+08
1.6687835e+08
1.7292492e+08
1.7114017e+08
1.5854784e+08
1.7114017e+08
1.5854784e+08
1.2445394e+08
1.2123797e+08
1.2445394e+08
1.2123797e+08
99733564
1.0311331e+08
99733564
1.0454718e+08
72046126
78255634
72046126
78255634
40564814
40355864
40564814
40355864
2.1041091e+08
1.9148004e+08
1.9793894e+08
1.9148004e+08
1.9793894e+08
1.6687835e+08
1.7292492e+08
1.6687835e+08
1.7292492e+08
1.7114017e+08
1.5854784e+08
1.7114017e+08
1.5854784e+08
1.2445394e+08
1.2123797e+08
1.2367652e+08
1.2123797e+08
99733564
1.0454718e+08
99733564
1.0454718e+08
72046126
78255634
72046126
78255634
40564814
40355864
40564814
40355864
2.1041091e+08
2.1041091e+08
2.0662904e+08
1.9148004e+08
1.9793894e+08
1.9148004e+08
1.9793894e+08
1.6687835e+08
1.7292492e+08
1.6687835e+08
1.7292492e+08
1.7114017e+08
1.5854784e+08
1.7114017e+08
1.5854784e+08
1.2367652e+08
1.2123797e+08
1.2367652e+08
1.2937707e+08
99733564
1.0454718e+08
99733564
1.0454718e+08
72046126
78255634
72046126
78255634
40564814
40355864
40564814
40355864
2.282229e+08
2.1041091e+08
2.0662904e+08
2.1041091e+08
2.0662904e+08
1.9148004e+08
1.9793894e+08
1.9148004e+08
1.9793894e+08
1.6687835e+08
1.7292492e+08
1.6687835e+08
1.7292492e+08
1.7114017e+08
1.5854784e+08
1.6097912e+08
1.5854784e+08
1.2367652e+08
1.2937707e+08
1.2367652e+08
1.2937707e+08
99733564
1.0454718e+08
99733564
1.0454718e+08
72046126
78255634
72046126
78255634
40564814
40355864
40355864
2.282229e+08
2.282229e+08
2.2397571e+08
2.1041091e+08
2.0662904e+08
2.1041091e+08
2.0662904e+08
1.9148004e+08
1.9793894e+08
1.9148004e+08
1.9793894e+08
1.6687835e+08
1.7292492e+08
1.6687835e+08
1.7292492e+08
1.6097912e+08
1.5854784e+08
1.6097912e+08
1.6269136e+08
1.2367652e+08
1.2937707e+08
1.2367652e+08
1.2937707e+08
99733564
1.0454718e+08
99733564
1.0454718e+08
72046126
78255634
72046126
78255634
40355864
1.6360642e+08
1.5046188e+08
1.5255634e+08
1.5046188e+08
1.5255634e+08
1.5255634e+08
1.1545431e+08
1.1545431e+08
1.320322e+08
1.320322e+08
1.1545431e+08
1.1545431e+08
1.320322e+08
1.320322e+08
1.320322e+08
1.0289321e+08
1.0289321e+08
1.0289321e+08
95969848
95969848
95969848
1.0289321e+08
1.0289321e+08
1.0289321e+08
1.0289321e+08
95969848
95969848
95969848
62976824
62976824
62976824
70210318
72788574
71615858
71615858
71615858
70210318
70210318
70210318
70210318
71615858
71615858
71615858
71615858
35454412
35454412
35454412
35454412
34015203
34015203
34015203
35454412
35454412
35454412
34015203
34015203
34015203
1.6360642e+08
1.6360642e+08
1.5692362e+08
1.5255634e+08
1.5046188e+08
1.5255634e+08
1.5046188e+08
1.320322e+08
1.1545431e+08
1.320322e+08
1.1545431e+08
95969848
1.0289321e+08
95969848
1.0289321e+08
71615858
62976824
71615858
34015203
34015203
1.8727664e+08
1.6360642e+08
1.5692362e+08
1.6360642e+08
1.5692362e+08
1.5255634e+08
1.5046188e+08
1.5255634e+08
1.5046188e+08
1.320322e+08
1.1545431e+08
1.320322e+08
1.1545431e+08
95969848
1.0289321e+08
94370441
1.0289321e+08
71615858
70210318
71615858
70210318
34015203
35454412
34015203
35454412
1.9148004e+08
1.9148004e+08
1.9793894e+08
1.6687835e+08
1.7292492e+08
1.6360642e+08
1.7292492e+08
1.5255634e+08
1.5046188e+08
1.7114017e+08
1.5046188e+08
1.2445394e+08
1.2123797e+08
1.2445394e+08
1.2123797e+08
99733564
1.0311331e+08
99733564
1.0454718e+08
72046126
78255634
71615858
78255634
34015203
35454412
40564814
35454412
2.1041091e+08
1.9148004e+08
1.9793894e+08
1.9148004e+08
1.9793894e+08
1.6687835e+08
1.7292492e+08
1.6687835e+08
1.7292492e+08
1.7114017e+08
1.5854784e+08
1.7114017e+08
1.5854784e+08
1.2445394e+08
1.2123797e+08
1.2367652e+08
1.2123797e+08
99733564
1.0454718e+08
99733564
1.0454718e+08
72046126
78255634
72046126
78255634
40564814
40355864
40564814
40355864
2.1041091e+08
2.1041091e+08
2.0662904e+08
1.9148004e+08
1.9793894e+08
1.9148004e+08
1.9793894e+08
1.6687835e+08
1.7292492e+08
1.6687835e+08
1.7292492e+08
1.7114017e+08
1.5854784e+08
1.7114017e+08
1.5854784e+08
1.2367652e+08
1.2123797e+08
1.2367652e+08
1.2937707e+08
99733564
1.0454718e+08
99733564
1.0454718e+08
72046126
78255634
72046126
78255634
40564814
40355864
40564814
40355864
2.282229e+08
2.1041091e+08
2.0662904e+08
2.1041091e+08
2.0662904e+08
1.9148004e+08
1.9793894e+08
1.9148004e+08
1.9793894e+08
1.6687835e+08
1.7292492e+08
1.6687835e+08
1.7292492e+08
1.7114017e+08
1.5854784e+08
1.6097912e+08
1.5854784e+08
1.2367652e+08
1.2937707e+08
1.2367652e+08
1.2937707e+08
99733564
1.0454718e+08
99733564
1.0454718e+08
72046126
78255634
72046126
78255634
40564814
40355864
40355864
2.282229e+08
2.282229e+08
2.2397571e+08
2.1041091e+08
2.0662904e+08
2.1041091e+08
2.0662904e+08
1.9148004e+08
1.9793894e+08
1.9148004e+08
1.9793894e+08
1.6687835e+08
1.7292492e+08
1.6687835e+08
1.7292492e+08
1.6097912e+08
1.5854784e+08
1.6097912e+08
1.6269136e+08
1.2367652e+08
1.2937707e+08
1.2367652e+08
1.2937707e+08
99733564
1.0454718e+08
99733564
1.0454718e+08
72046126
78255634
72046126
78255634
40355864
2.0951395e+08
2.282229e+08
2.2397571e+08
2.282229e+08
2.2397571e+08
2.1041091e+08
2.0662904e+08
2.1041091e+08
2.0662904e+08
1.9148004e+08
1.9793894e+08
1.9148004e+08
1.9793894e+08
1.6687835e+08
1.7292492e+08
1.7911939e+08
1.7292492e+08
1.6097912e+08
1.6269136e+08
1.6097912e+08
1.6269136e+08
1.2367652e+08
1.2937707e+08
1.2367652e+08
1.2937707e+08
99733564
1.0454718e+08
99733564
1.0454718e+08
72046126
78255634
78255634
1.6360642e+08
1.5692362e+08
1.6360642e+08
1.5046188e+08
1.5255634e+08
1.5255634e+08
1.5046188e+08
1.5046188e+08
1.5255634e+08
1.5255634e+08
1.1545431e+08
1.1545431e+08
1.1545431e+08
1.320322e+08
1.320322e+08
1.1545431e+08
1.1545431e+08
1.1545431e+08
1.320322e+08
1.320322e+08
1.320322e+08
1.0289321e+08
1.0289321e+08
1.0289321e+08
1.0289321e+08
95969848
95969848
95969848
1.0289321e+08
1.0289321e+08
1.0289321e+08
95317243
95969848
94370441
94370441
94370441
70210318
70210318
70210318
70210318
71615858
71615858
71615858
71615858
70210318
70210318
70210318
70210318
71615858
71615858
71615858
35454412
35454412
35454412
35454412
34015203
34015203
35454412
35454412
35454412
34015203
34015203
1.8727664e+08
1.6360642e+08
1.5692362e+08
1.6360642e+08
1.5692362e+08
1.5255634e+08
1.5046188e+08
1.5255634e+08
1.5046188e+08
1.320322e+08
1.1545431e+08
1.320322e+08
1.1545431e+08
95969848
1.0289321e+08
94370441
1.0289321e+08
71615858
71615858
34015203
34015203
1.8727664e+08
1.8727664e+08
1.8886579e+08
1.6360642e+08
1.5692362e+08
1.6360642e+08
1.5692362e+08
1.5255634e+08
1.5046188e+08
1.5255634e+08
1.5046188e+08
1.320322e+08
1.1545431e+08
1.320322e+08
1.1545431e+08
94370441
1.0289321e+08
94370441
95317243
71615858
70210318
71615858
70210318
34015203
35454412
34015203
35454412
2.1041091e+08
1.9148004e+08
1.9793894e+08
1.9148004e+08
1.9793894e+08
1.6360642e+08
1.7292492e+08
1.6360642e+08
1.5692362e+08
1.7114017e+08
1.5046188e+08
1.7114017e+08
1.5854784e+08
1.2445394e+08
1.2123797e+08
1.2367652e+08
1.2123797e+08
99733564
1.0454718e+08
99733564
1.0454718e+08
71615858
78255634
71615858
70210318
40564814
35454412
40564814
40355864
2.1041091e+08
2.1041091e+08
2.0662904e+08
1.9148004e+08
1.9793894e+08
1.9148004e+08
1.9793894e+08
1.6687835e+08
1.7292492e+08
1.6687835e+08
1.7292492e+08
1.7114017e+08
1.5854784e+08
1.7114017e+08
1.5854784e+08
1.2367652e+08
1.2123797e+08
1.2367652e+08
1.2937707e+08
99733564
1.0454718e+08
99733564
1.0454718e+08
72046126
78255634
72046126
78255634
40564814
40355864
40564814
40355864
2.282229e+08
2.1041091e+08
2.0662904e+08
2.1041091e+08
2.0662904e+08
1.9148004e+08
1.9793894e+08
1.9148004e+08
1.9793894e+08
1.6687835e+08
1.7292492e+08
1.6687835e+08
1.7292492e+08
1.7114017e+08
1.5854784e+08
1.6097912e+08
1.5854784e+08
1.2367652e+08
1.2937707e+08
1.2367652e+08
1.2937707e+08
99733564
1.0454718e+08
99733564
1.0454718e+08
72046126
78255634
72046126
78255634
40564814
40355864
40355864
2.282229e+08
2.282229e+08
2.2397571e+08
2.1041091e+08
2.0662904e+08
2.1041091e+08
2.0662904e+08
1.9148004e+08
1.9793894e+08
1.9148004e+08
1.9793894e+08
1.6687835e+08
1.7292492e+08
1.6687835e+08
1.7292492e+08
1.6097912e+08
1.5854784e+08
1.6097912e+08
1.6269136e+08
1.2367652e+08
1.2937707e+08
1.2367652e+08
1.2937707e+08
99733564
1.0454718e+08
99733564
1.0454718e+08
72046126
78255634
72046126
78255634
40355864
2.0951395e+08
2.282229e+08
2.2397571e+08
2.282229e+08
2.2397571e+08
2.1041091e+08
2.0662904e+08
2.1041091e+08
2.0662904e+08
1.9148004e+08
1.9793894e+08
1.9148004e+08
1.9793894e+08
1.6687835e+08
1.7292492e+08
1.7911939e+08
1.7292492e+08
1.6097912e+08
1.6269136e+08
1.6097912e+08
1.6269136e+08
1.2367652e+08
1.2937707e+08
1.2367652e+08
1.2937707e+08
99733564
1.0454718e+08
99733564
1.0454718e+08
72046126
78255634
78255634
2.0951395e+08
2.0951395e+08
2.0967539e+08
2.282229e+08
2.2397571e+08
2.282229e+08
2.2397571e+08
2.1041091e+08
2.0662904e+08
2.1041091e+08
2.0662904e+08
1.9148004e+08
1.9793894e+08
1.9148004e+08
1.9793894e+08
1.7911939e+08
1.7292492e+08
1.7911939e+08
1.7328054e+08
1.6097912e+08
1.6269136e+08
1.6097912e+08
1.6269136e+08
1.2367652e+08
1.2937707e+08
1.2367652e+08
1.2937707e+08
99733564
1.0454718e+08
99733564
1.0454718e+08
78255634
1.8727664e+08
1.5692362e+08
1.6360642e+08
1.5692362e+08
1.6360642e+08
1.6360642e+08
1.5046188e+08
1.5046188e+08
1.5255634e+08
1.5255634e+08