/*--------------------------------*- C++ -*----------------------------------*\
| =========                 |                                                 |
| \\      /  F ield         | OpenFOAM: The Open Source CFD Toolbox           |
|  \\    /   O peration     | Version:  2106                                  |
|   \\  /    A nd           | Website:  www.openfoam.com                      |
|    \\/     M anipulation  |                                                 |
\*---------------------------------------------------------------------------*/
FoamFile
{
    version     2.0;
    format      ascii;
    arch        "LSB;label=32;scalar=64";
    class       volScalarField;
    location    "constant/fuel";
    object      volPower_0;
}
// * * * * * * * * * * * * * * * * * * * * * * * * * * * * * * * * * * * * * //

dimensions      [1 -1 -3 0 0 0 0];

internalField   nonuniform List<scalar> 
16000
(
32052133
32052133
32052133
32052133
31239168
32052133
32052133
32052133
31239168
53949959
32052133
31239168
32052133
31239168
32052133
32052133
32052133
31239168
53949959
32052133
31239168
32052133
31239168
53949959
53949959
54918548
32052133
31239168
32052133
31239168
32052133
32052133
32052133
31239168
53949959
32052133
31239168
32052133
31239168
53949959
53949959
54918548
32052133
31239168
32052133
31239168
78813659
53949959
54918548
53949959
54918548
32052133
31239168
32052133
31239168
32052133
32052133
32052133
31239168
53949959
32052133
31239168
32052133
31239168
53949959
53949959
54918548
32052133
31239168
32052133
31239168
78813659
53949959
54918548
53949959
54918548
32052133
31239168
32052133
31239168
78813659
78813659
81036483
53949959
54918548
53949959
54918548
32052133
31239168
32052133
31239168
28790445
32052133
32052133
31239168
53949959
32052133
31239168
32052133
31239168
53949959
53949959
54918548
32052133
31239168
32052133
31239168
78813659
53949959
54918548
53949959
54918548
32052133
31239168
32052133
31239168
78813659
78813659
81036483
53949959
54918548
53949959
54918548
32052133
31239168
32052133
31239168
93001419
78813659
81036483
78813659
81036483
53949959
54918548
53949959
54918548
32052133
31239168
32052133
31239168
28790445
28790445
28790445
31291200
53949959
32052133
31239168
32052133
31239168
53949959
53949959
54918548
32052133
31239168
32052133
31239168
78813659
53949959
54918548
53949959
54918548
32052133
31239168
32052133
31239168
78813659
78813659
81036483
53949959
54918548
53949959
54918548
32052133
31239168
32052133
31239168
93001419
78813659
81036483
78813659
81036483
53949959
54918548
53949959
54918548
32052133
31239168
32052133
31239168
93001419
93001419
91117879
78813659
81036483
78813659
81036483
53949959
54918548
53949959
54918548
32052133
31239168
32052133
31239168
28790445
28790445
28790445
31291200
52221708
28790445
31291200
28790445
31291200
53949959
53949959
54918548
32052133
31239168
28790445
31239168
78813659
53949959
54918548
53949959
54918548
32052133
31239168
32052133
31239168
78813659
78813659
81036483
53949959
54918548
53949959
54918548
32052133
31239168
32052133
31239168
93001419
78813659
81036483
78813659
81036483
53949959
54918548
53949959
54918548
32052133
31239168
32052133
31239168
93001419
93001419
91117879
78813659
81036483
78813659
81036483
53949959
54918548
53949959
54918548
32052133
31239168
32052133
31239168
1.0764989e+08
93001419
91117879
93001419
91117879
78813659
81036483
78813659
81036483
53949959
54918548
53949959
54918548
32052133
31239168
31046399
31239168
28790445
31291200
28790445
52221708
28790445
31291200
28790445
31291200
52221708
52221708
47709419
28790445
31291200
28790445
31291200
78813659
53949959
54918548
53949959
54918548
28790445
31239168
28790445
31291200
78813659
78813659
81036483
53949959
54918548
53949959
54918548
32052133
31239168
32052133
31239168
93001419
78813659
81036483
78813659
81036483
53949959
54918548
53949959
54918548
32052133
31239168
32052133
31239168
93001419
93001419
91117879
78813659
81036483
78813659
81036483
53949959
54918548
53949959
54918548
32052133
31239168
32052133
31239168
1.0764989e+08
93001419
91117879
93001419
91117879
78813659
81036483
78813659
81036483
53949959
54918548
53949959
54918548
32052133
31239168
31046399
31239168
1.0764989e+08
1.0764989e+08
1.0830713e+08
93001419
91117879
93001419
91117879
78813659
81036483
78813659
81036483
53949959
54918548
53949959
54918548
31046399
31239168
31046399
31292382
47709419
31291200
28790445
31291200
28790445
28790445
52221708
52221708
47709419
28790445
31291200
28790445
31291200
71939669
52221708
47709419
52221708
47709419
28790445
31291200
28790445
31291200
78813659
78813659
81036483
53949959
54918548
52221708
54918548
28790445
31291200
32052133
31291200
93001419
78813659
81036483
78813659
81036483
53949959
54918548
53949959
54918548
32052133
31239168
32052133
31239168
93001419
93001419
91117879
78813659
81036483
78813659
81036483
53949959
54918548
53949959
54918548
32052133
31239168
32052133
31239168
1.0764989e+08
93001419
91117879
93001419
91117879
78813659
81036483
78813659
81036483
53949959
54918548
53949959
54918548
32052133
31239168
31046399
31239168
1.0764989e+08
1.0764989e+08
1.0830713e+08
93001419
91117879
93001419
91117879
78813659
81036483
78813659
81036483
53949959
54918548
53949959
54918548
31046399
31239168
31046399
31292382
1.2624357e+08
1.0764989e+08
1.0830713e+08
1.0764989e+08
1.0830713e+08
93001419
91117879
93001419
91117879
78813659
81036483
78813659
81036483
53949959
54918548
53515656
54918548
31046399
31292382
31046399
31292382
52221708
47709419
52221708
31291200
28790445
28790445
31291200
31291200
28790445
28790445
71939669
52221708
47709419
52221708
47709419
28790445
31291200
28790445
31291200
71939669
71939669
76643549
52221708
47709419
52221708
47709419
28790445
31291200
28790445
31291200
93001419
78813659
81036483
78813659
81036483
52221708
54918548
52221708
47709419
32052133
31291200
32052133
31239168
93001419
93001419
91117879
78813659
81036483
78813659
81036483
53949959
54918548
53949959
54918548
32052133
31239168
32052133
31239168
1.0764989e+08
93001419
91117879
93001419
91117879
78813659
81036483
78813659
81036483
53949959
54918548
53949959
54918548
32052133
31239168
31046399
31239168
1.0764989e+08
1.0764989e+08
1.0830713e+08
93001419
91117879
93001419
91117879
78813659
81036483
78813659
81036483
53949959
54918548
53949959
54918548
31046399
31239168
31046399
31292382
1.2624357e+08
1.0764989e+08
1.0830713e+08
1.0764989e+08
1.0830713e+08
93001419
91117879
93001419
91117879
78813659
81036483
78813659
81036483
53949959
54918548
53515656
54918548
31046399
31292382
31046399
31292382
1.2624357e+08
1.2624357e+08
1.2732734e+08
1.0764989e+08
1.0830713e+08
1.0764989e+08
1.0830713e+08
93001419
91117879
93001419
91117879
78813659
81036483
78813659
81036483
53515656
54918548
53515656
53670654
31046399
31292382
31046399
31292382
71939669
47709419
52221708
47709419
52221708
52221708
31291200
31291200
28790445
28790445
31291200
31291200
28790445
28790445
28790445
71939669
71939669
76643549
52221708
47709419
52221708
47709419
28790445
31291200
28790445
31291200
94769628
71939669
76643549
71939669
76643549
52221708
47709419
52221708
47709419
28790445
31291200
28790445
31291200
93001419
93001419
91117879
78813659
81036483
71939669
81036483
52221708
47709419
53949959
47709419
32052133
31239168
32052133
31239168
1.0764989e+08
93001419
91117879
93001419
91117879
78813659
81036483
78813659
81036483
53949959
54918548
53949959
54918548
32052133
31239168
31046399
31239168
1.0764989e+08
1.0764989e+08
1.0830713e+08
93001419
91117879
93001419
91117879
78813659
81036483
78813659
81036483
53949959
54918548
53949959
54918548
31046399
31239168
31046399
31292382
1.2624357e+08
1.0764989e+08
1.0830713e+08
1.0764989e+08
1.0830713e+08
93001419
91117879
93001419
91117879
78813659
81036483
78813659
81036483
53949959
54918548
53515656
54918548
31046399
31292382
31046399
31292382
1.2624357e+08
1.2624357e+08
1.2732734e+08
1.0764989e+08
1.0830713e+08
1.0764989e+08
1.0830713e+08
93001419
91117879
93001419
91117879
78813659
81036483
78813659
81036483
53515656
54918548
53515656
53670654
31046399
31292382
31046399
31292382
1.5158472e+08
1.2624357e+08
1.2732734e+08
1.2624357e+08
1.2732734e+08
1.0764989e+08
1.0830713e+08
1.0764989e+08
1.0830713e+08
93001419
91117879
93001419
91117879
78813659
81036483
80128710
81036483
53515656
53670654
53515656
53670654
31046399
31292382
31046399
31292382
71939669
76643549
71939669
47709419
52221708
52221708
47709419
47709419
52221708
52221708
31291200
31291200
28790445
28790445
28790445
31291200
31291200
31291200
28790445
28790445
28790445
94769628
71939669
76643549
71939669
76643549
52221708
47709419
52221708
47709419
28790445
31291200
28790445
31291200
94769628
94769628
92864879
71939669
76643549
71939669
76643549
52221708
47709419
52221708
47709419
28790445
31291200
28790445
31291200
1.0764989e+08
93001419
91117879
93001419
91117879
71939669
81036483
71939669
76643549
53949959
47709419
53949959
54918548
32052133
31239168
31046399
31239168
1.0764989e+08
1.0764989e+08
1.0830713e+08
93001419
91117879
93001419
91117879
78813659
81036483
78813659
81036483
53949959
54918548
53949959
54918548
31046399
31239168
31046399
31292382
1.2624357e+08
1.0764989e+08
1.0830713e+08
1.0764989e+08
1.0830713e+08
93001419
91117879
93001419
91117879
78813659
81036483
78813659
81036483
53949959
54918548
53515656
54918548
31046399
31292382
31046399
31292382
1.2624357e+08
1.2624357e+08
1.2732734e+08
1.0764989e+08
1.0830713e+08
1.0764989e+08
1.0830713e+08
93001419
91117879
93001419
91117879
78813659
81036483
78813659
81036483
53515656
54918548
53515656
53670654
31046399
31292382
31046399
31292382
1.5158472e+08
1.2624357e+08
1.2732734e+08
1.2624357e+08
1.2732734e+08
1.0764989e+08
1.0830713e+08
1.0764989e+08
1.0830713e+08
93001419
91117879
93001419
91117879
78813659
81036483
80128710
81036483
53515656
53670654
53515656
53670654
31046399
31292382
31046399
31292382
1.5158472e+08
1.5158472e+08
1.4889208e+08
1.2624357e+08
1.2732734e+08
1.2624357e+08
1.2732734e+08
1.0764989e+08
1.0830713e+08
1.0764989e+08
1.0830713e+08
93001419
91117879
93001419
91117879
80128710
81036483
80128710
79660987
53515656
53670654
53515656
53670654
31046399
31292382
31046399
31292382
94769628
76643549
71939669
76643549
71939669
71939669
47709419
47709419
52221708
52221708
47709419
47709419
52221708
52221708
52221708
31291200
31291200
31291200
28790445
28790445
28790445
31291200
31291200
31291200
31291200
28790445
28790445
28790445
94769628
94769628
92864879
71939669
76643549
71939669
76643549
52221708
47709419
52221708
47709419
28790445
31291200
28790445
31291200
1.0146155e+08
94769628
92864879
94769628
92864879
71939669
76643549
71939669
76643549
52221708
47709419
52221708
47709419
28790445
31291200
26993653
31291200
1.0764989e+08
1.0764989e+08
1.0830713e+08
93001419
91117879
94769628
91117879
71939669
76643549
78813659
76643549
53949959
54918548
53949959
54918548
31046399
31239168
31046399
31292382
1.2624357e+08
1.0764989e+08
1.0830713e+08
1.0764989e+08
1.0830713e+08
93001419
91117879
93001419
91117879
78813659
81036483
78813659
81036483
53949959
54918548
53515656
54918548
31046399
31292382
31046399
31292382
1.2624357e+08
1.2624357e+08
1.2732734e+08
1.0764989e+08
1.0830713e+08
1.0764989e+08
1.0830713e+08
93001419
91117879
93001419
91117879
78813659
81036483
78813659
81036483
53515656
54918548
53515656
53670654
31046399
31292382
31046399
31292382
1.5158472e+08
1.2624357e+08
1.2732734e+08
1.2624357e+08
1.2732734e+08
1.0764989e+08
1.0830713e+08
1.0764989e+08
1.0830713e+08
93001419
91117879
93001419
91117879
78813659
81036483
80128710
81036483
53515656
53670654
53515656
53670654
31046399
31292382
31046399
31292382
1.5158472e+08
1.5158472e+08
1.4889208e+08
1.2624357e+08
1.2732734e+08
1.2624357e+08
1.2732734e+08
1.0764989e+08
1.0830713e+08
1.0764989e+08
1.0830713e+08
93001419
91117879
93001419
91117879
80128710
81036483
80128710
79660987
53515656
53670654
53515656
53670654
31046399
31292382
31046399
31292382
1.7264041e+08
1.5158472e+08
1.4889208e+08
1.5158472e+08
1.4889208e+08
1.2624357e+08
1.2732734e+08
1.2624357e+08
1.2732734e+08
1.0764989e+08
1.0830713e+08
1.0764989e+08
1.0830713e+08
93001419
91117879
94669370
91117879
80128710
79660987
80128710
79660987
53515656
53670654
53515656
53670654
31046399
31292382
31046399
31292382
94769628
92864879
94769628
76643549
71939669
71939669
76643549
76643549
71939669
71939669
47709419
47709419
52221708
52221708
52221708
47709419
47709419
47709419
52221708
52221708
52221708
31291200
31291200
31291200
31291200
28790445
28790445
28790445
31291200
31291200
31291200
29269920
28790445
26993653
26993653
26993653
1.0146155e+08
94769628
92864879
94769628
92864879
71939669
76643549
71939669
76643549
52221708
47709419
52221708
47709419
28790445
31291200
26993653
31291200
1.0146155e+08
1.0146155e+08
1.0518732e+08
94769628
92864879
94769628
92864879
71939669
76643549
71939669
76643549
52221708
47709419
52221708
47709419
26993653
31291200
26993653
29269920
1.2624357e+08
1.0764989e+08
1.0830713e+08
1.0764989e+08
1.0830713e+08
94769628
91117879
94769628
92864879
78813659
76643549
78813659
81036483
53949959
54918548
53515656
54918548
31046399
31292382
31046399
31292382
1.2624357e+08
1.2624357e+08
1.2732734e+08
1.0764989e+08
1.0830713e+08
1.0764989e+08
1.0830713e+08
93001419
91117879
93001419
91117879
78813659
81036483
78813659
81036483
53515656
54918548
53515656
53670654
31046399
31292382
31046399
31292382
1.5158472e+08
1.2624357e+08
1.2732734e+08
1.2624357e+08
1.2732734e+08
1.0764989e+08
1.0830713e+08
1.0764989e+08
1.0830713e+08
93001419
91117879
93001419
91117879
78813659
81036483
80128710
81036483
53515656
53670654
53515656
53670654
31046399
31292382
31046399
31292382
1.5158472e+08
1.5158472e+08
1.4889208e+08
1.2624357e+08
1.2732734e+08
1.2624357e+08
1.2732734e+08
1.0764989e+08
1.0830713e+08
1.0764989e+08
1.0830713e+08
93001419
91117879
93001419
91117879
80128710
81036483
80128710
79660987
53515656
53670654
53515656
53670654
31046399
31292382
31046399
31292382
1.7264041e+08
1.5158472e+08
1.4889208e+08
1.5158472e+08
1.4889208e+08
1.2624357e+08
1.2732734e+08
1.2624357e+08
1.2732734e+08
1.0764989e+08
1.0830713e+08
1.0764989e+08
1.0830713e+08
93001419
91117879
94669370
91117879
80128710
79660987
80128710
79660987
53515656
53670654
53515656
53670654
31046399
31292382
31046399
31292382
1.7264041e+08
1.7264041e+08
1.6779445e+08
1.5158472e+08
1.4889208e+08
1.5158472e+08
1.4889208e+08
1.2624357e+08
1.2732734e+08
1.2624357e+08
1.2732734e+08
1.0764989e+08
1.0830713e+08
1.0764989e+08
1.0830713e+08
94669370
91117879
94669370
95814044
80128710
79660987
80128710
79660987
53515656
53670654
53515656
53670654
31046399
31292382
31046399
31292382
1.0146155e+08
92864879
94769628
92864879
94769628
94769628
76643549
76643549
71939669
71939669
76643549
76643549
71939669
71939669
71939669
47709419
47709419
47709419
52221708
52221708
52221708
47709419
47709419
47709419
47709419
52221708
52221708
52221708
31291200
31291200
31291200
29269920
28790445
26993653
26993653
26993653
29269920
29269920
29269920
29269920
26993653
26993653
26993653
26993653
1.0146155e+08
1.0146155e+08
1.0518732e+08
94769628
92864879
94769628
92864879
71939669
76643549
71939669
76643549
52221708
47709419
52221708
47709419
26993653
31291200
26993653
1.2153791e+08
1.0146155e+08
1.0518732e+08
1.0146155e+08
1.0518732e+08
94769628
92864879
94769628
92864879
71939669
76643549
71939669
76643549
52221708
47709419
49257068
47709419
26993653
29269920
26993653
29269920
1.2624357e+08
1.2624357e+08
1.2732734e+08
1.0764989e+08
1.0830713e+08
1.0146155e+08
1.0830713e+08
94769628
92864879
93001419
92864879
78813659
81036483
78813659
81036483
53515656
54918548
53515656
53670654
31046399
31292382
26993653
31292382
1.5158472e+08
1.2624357e+08
1.2732734e+08
1.2624357e+08
1.2732734e+08
1.0764989e+08
1.0830713e+08
1.0764989e+08
1.0830713e+08
93001419
91117879
93001419
91117879
78813659
81036483
80128710
81036483
53515656
53670654
53515656
53670654
31046399
31292382
31046399
31292382
1.5158472e+08
1.5158472e+08
1.4889208e+08
1.2624357e+08
1.2732734e+08
1.2624357e+08
1.2732734e+08
1.0764989e+08
1.0830713e+08
1.0764989e+08
1.0830713e+08
93001419
91117879
93001419
91117879
80128710
81036483
80128710
79660987
53515656
53670654
53515656
53670654
31046399
31292382
31046399
31292382
1.7264041e+08
1.5158472e+08
1.4889208e+08
1.5158472e+08
1.4889208e+08
1.2624357e+08
1.2732734e+08
1.2624357e+08
1.2732734e+08
1.0764989e+08
1.0830713e+08
1.0764989e+08
1.0830713e+08
93001419
91117879
94669370
91117879
80128710
79660987
80128710
79660987
53515656
53670654
53515656
53670654
31046399
31292382
31046399
31292382
1.7264041e+08
1.7264041e+08
1.6779445e+08
1.5158472e+08
1.4889208e+08
1.5158472e+08
1.4889208e+08
1.2624357e+08
1.2732734e+08
1.2624357e+08
1.2732734e+08
1.0764989e+08
1.0830713e+08
1.0764989e+08
1.0830713e+08
94669370
91117879
94669370
95814044
80128710
79660987
80128710
79660987
53515656
53670654
53515656
53670654
31046399
31292382
31046399
31292382
1.9061375e+08
1.7264041e+08
1.6779445e+08
1.7264041e+08
1.6779445e+08
1.5158472e+08
1.4889208e+08
1.5158472e+08
1.4889208e+08
1.2624357e+08
1.2732734e+08
1.2624357e+08
1.2732734e+08
1.0764989e+08
1.0830713e+08
1.080245e+08
1.0830713e+08
94669370
95814044
94669370
95814044
80128710
79660987
80128710
79660987
53515656
53670654
53515656
53670654
31046399
31292382
31292382
1.0146155e+08
1.0518732e+08
1.0146155e+08
92864879
94769628
94769628
92864879
92864879
94769628
94769628
76643549
76643549
71939669
71939669
71939669
76643549
76643549
76643549
71939669
71939669
71939669
47709419
47709419
47709419
47709419
52221708
52221708
52221708
47709419
47709419
47709419
53581471
52221708
49257068
49257068
49257068
29269920
29269920
29269920
29269920
26993653
26993653
26993653
26993653
29269920
29269920
29269920
29269920
26993653
26993653
26993653
1.2153791e+08
1.0146155e+08
1.0518732e+08
1.0146155e+08
1.0518732e+08
94769628
92864879
94769628
92864879
71939669
76643549
71939669
76643549
52221708
47709419
49257068
47709419
26993653
26993653
1.2153791e+08
1.2153791e+08
1.2511311e+08
1.0146155e+08
1.0518732e+08
1.0146155e+08
1.0518732e+08
94769628
92864879
94769628
92864879
71939669
76643549
71939669
76643549
49257068
47709419
49257068
53581471
26993653
29269920
26993653
29269920
1.5158472e+08
1.2624357e+08
1.2732734e+08
1.2624357e+08
1.2732734e+08
1.0146155e+08
1.0830713e+08
1.0146155e+08
1.0518732e+08
93001419
92864879
93001419
91117879
78813659
81036483
80128710
81036483
53515656
53670654
53515656
53670654
26993653
31292382
26993653
29269920
1.5158472e+08
1.5158472e+08
1.4889208e+08
1.2624357e+08
1.2732734e+08
1.2624357e+08
1.2732734e+08
1.0764989e+08
1.0830713e+08
1.0764989e+08
1.0830713e+08
93001419
91117879
93001419
91117879
80128710
81036483
80128710
79660987
53515656
53670654
53515656
53670654
31046399
31292382
31046399
31292382
1.7264041e+08
1.5158472e+08
1.4889208e+08
1.5158472e+08
1.4889208e+08
1.2624357e+08
1.2732734e+08
1.2624357e+08
1.2732734e+08
1.0764989e+08
1.0830713e+08
1.0764989e+08
1.0830713e+08
93001419
91117879
94669370
91117879
80128710
79660987
80128710
79660987
53515656
53670654
53515656
53670654
31046399
31292382
31046399
31292382
1.7264041e+08
1.7264041e+08
1.6779445e+08
1.5158472e+08
1.4889208e+08
1.5158472e+08
1.4889208e+08
1.2624357e+08
1.2732734e+08
1.2624357e+08
1.2732734e+08
1.0764989e+08
1.0830713e+08
1.0764989e+08
1.0830713e+08
94669370
91117879
94669370
95814044
80128710
79660987
80128710
79660987
53515656
53670654
53515656
53670654
31046399
31292382
31046399
31292382
1.9061375e+08
1.7264041e+08
1.6779445e+08
1.7264041e+08
1.6779445e+08
1.5158472e+08
1.4889208e+08
1.5158472e+08
1.4889208e+08
1.2624357e+08
1.2732734e+08
1.2624357e+08
1.2732734e+08
1.0764989e+08
1.0830713e+08
1.080245e+08
1.0830713e+08
94669370
95814044
94669370
95814044
80128710
79660987
80128710
79660987
53515656
53670654
53515656
53670654
31046399
31292382
31292382
1.9061375e+08
1.9061375e+08
1.9697767e+08
1.7264041e+08
1.6779445e+08
1.7264041e+08
1.6779445e+08
1.5158472e+08
1.4889208e+08
1.5158472e+08
1.4889208e+08
1.2624357e+08
1.2732734e+08
1.2624357e+08
1.2732734e+08
1.080245e+08
1.0830713e+08
1.080245e+08
1.0986085e+08
94669370
95814044
94669370
95814044
80128710
79660987
80128710
79660987
53515656
53670654
53515656
53670654
31292382
1.2153791e+08
1.0518732e+08
1.0146155e+08
1.0518732e+08
1.0146155e+08
1.0146155e+08
92864879
92864879
94769628
94769628
92864879
92864879
94769628
94769628
94769628
76643549
76643549
76643549
71939669
71939669
71939669
76643549
76643549
76643549
76643549
71939669
71939669
71939669
47709419
47709419
47709419
53581471
52221708
49257068
49257068
49257068
53581471
53581471
53581471
53581471
49257068
49257068
49257068
49257068
29269920
29269920
29269920
29269920
26993653
26993653
26993653
29269920
29269920
29269920
26993653
26993653
26993653
1.2153791e+08
1.2153791e+08
1.2511311e+08
1.0146155e+08
1.0518732e+08
1.0146155e+08
1.0518732e+08
94769628
92864879
94769628
92864879
71939669
76643549
71939669
76643549
49257068
47709419
49257068
26993653
26993653
1.3733063e+08
1.2153791e+08
1.2511311e+08
1.2153791e+08
1.2511311e+08
1.0146155e+08
1.0518732e+08
1.0146155e+08
1.0518732e+08
94769628
92864879
94769628
92864879
71939669
76643549
76723559
76643549
49257068
53581471
49257068
53581471
26993653
29269920
26993653
29269920
1.5158472e+08
1.5158472e+08
1.4889208e+08
1.2624357e+08
1.2732734e+08
1.2153791e+08
1.2732734e+08
1.0146155e+08
1.0518732e+08
1.0764989e+08
1.0518732e+08
93001419
91117879
93001419
91117879
80128710
81036483
80128710
79660987
53515656
53670654
49257068
53670654
26993653
29269920
31046399
29269920
1.7264041e+08
1.5158472e+08
1.4889208e+08
1.5158472e+08
1.4889208e+08
1.2624357e+08
1.2732734e+08
1.2624357e+08
1.2732734e+08
1.0764989e+08
1.0830713e+08
1.0764989e+08
1.0830713e+08
93001419
91117879
94669370
91117879
80128710
79660987
80128710
79660987
53515656
53670654
53515656
53670654
31046399
31292382
31046399
31292382
1.7264041e+08
1.7264041e+08
1.6779445e+08
1.5158472e+08
1.4889208e+08
1.5158472e+08
1.4889208e+08
1.2624357e+08
1.2732734e+08
1.2624357e+08
1.2732734e+08
1.0764989e+08
1.0830713e+08
1.0764989e+08
1.0830713e+08
94669370
91117879
94669370
95814044
80128710
79660987
80128710
79660987
53515656
53670654
53515656
53670654
31046399
31292382
31046399
31292382
1.9061375e+08
1.7264041e+08
1.6779445e+08
1.7264041e+08
1.6779445e+08
1.5158472e+08
1.4889208e+08
1.5158472e+08
1.4889208e+08
1.2624357e+08
1.2732734e+08
1.2624357e+08
1.2732734e+08
1.0764989e+08
1.0830713e+08
1.080245e+08
1.0830713e+08
94669370
95814044
94669370
95814044
80128710
79660987
80128710
79660987
53515656
53670654
53515656
53670654
31046399
31292382
31292382
1.9061375e+08
1.9061375e+08
1.9697767e+08
1.7264041e+08
1.6779445e+08
1.7264041e+08
1.6779445e+08
1.5158472e+08
1.4889208e+08
1.5158472e+08
1.4889208e+08
1.2624357e+08
1.2732734e+08
1.2624357e+08
1.2732734e+08
1.080245e+08
1.0830713e+08
1.080245e+08
1.0986085e+08
94669370
95814044
94669370
95814044
80128710
79660987
80128710
79660987
53515656
53670654
53515656
53670654
31292382
2.0340314e+08
1.9061375e+08
1.9697767e+08
1.9061375e+08
1.9697767e+08
1.7264041e+08
1.6779445e+08
1.7264041e+08
1.6779445e+08
1.5158472e+08
1.4889208e+08
1.5158472e+08
1.4889208e+08
1.2624357e+08
1.2732734e+08
1.2817832e+08
1.2732734e+08
1.080245e+08
1.0986085e+08
1.080245e+08
1.0986085e+08
94669370
95814044
94669370
95814044
80128710
79660987
80128710
79660987
53515656
53670654
53670654
1.2153791e+08
1.2511311e+08
1.2153791e+08
1.0518732e+08
1.0146155e+08
1.0146155e+08
1.0518732e+08
1.0518732e+08
1.0146155e+08
1.0146155e+08
92864879
92864879
92864879
94769628
94769628
92864879
92864879
92864879
94769628
94769628
94769628
76643549
76643549
76643549
76643549
71939669
71939669
71939669
76643549
76643549
76643549
76377335
71939669
76723559
76723559
76723559
53581471
53581471
53581471
53581471
49257068
49257068
49257068
49257068
53581471
53581471
53581471
53581471
49257068
49257068
49257068
29269920
29269920
29269920
29269920
26993653
26993653
29269920
29269920
29269920
26993653
26993653
1.3733063e+08
1.2153791e+08
1.2511311e+08
1.2153791e+08
1.2511311e+08
1.0146155e+08
1.0518732e+08
1.0146155e+08
1.0518732e+08
94769628
92864879
94769628
92864879
71939669
76643549
76723559
76643549
49257068
49257068
26993653
26993653
1.3733063e+08
1.3733063e+08
1.5410749e+08
1.2153791e+08
1.2511311e+08
1.2153791e+08
1.2511311e+08
1.0146155e+08
1.0518732e+08
1.0146155e+08
1.0518732e+08
94769628
92864879
94769628
92864879
76723559
76643549
76723559
76377335
49257068
53581471
49257068
53581471
26993653
29269920
26993653
29269920
1.7264041e+08
1.5158472e+08
1.4889208e+08
1.5158472e+08
1.4889208e+08
1.2153791e+08
1.2732734e+08
1.2153791e+08
1.2511311e+08
1.0764989e+08
1.0518732e+08
1.0764989e+08
1.0830713e+08
93001419
91117879
94669370
91117879
80128710
79660987
80128710
79660987
49257068
53670654
49257068
53581471
31046399
29269920
31046399
31292382
1.7264041e+08
1.7264041e+08
1.6779445e+08
1.5158472e+08
1.4889208e+08
1.5158472e+08
1.4889208e+08
1.2624357e+08
1.2732734e+08
1.2624357e+08
1.2732734e+08
1.0764989e+08
1.0830713e+08
1.0764989e+08
1.0830713e+08
94669370
91117879
94669370
95814044
80128710
79660987
80128710
79660987
53515656
53670654
53515656
53670654
31046399
31292382
31046399
31292382
1.9061375e+08
1.7264041e+08
1.6779445e+08
1.7264041e+08
1.6779445e+08
1.5158472e+08
1.4889208e+08
1.5158472e+08
1.4889208e+08
1.2624357e+08
1.2732734e+08
1.2624357e+08
1.2732734e+08
1.0764989e+08
1.0830713e+08
1.080245e+08
1.0830713e+08
94669370
95814044
94669370
95814044
80128710
79660987
80128710
79660987
53515656
53670654
53515656
53670654
31046399
31292382
31292382
1.9061375e+08
1.9061375e+08
1.9697767e+08
1.7264041e+08
1.6779445e+08
1.7264041e+08
1.6779445e+08
1.5158472e+08
1.4889208e+08
1.5158472e+08
1.4889208e+08
1.2624357e+08
1.2732734e+08
1.2624357e+08
1.2732734e+08
1.080245e+08
1.0830713e+08
1.080245e+08
1.0986085e+08
94669370
95814044
94669370
95814044
80128710
79660987
80128710
79660987
53515656
53670654
53515656
53670654
31292382
2.0340314e+08
1.9061375e+08
1.9697767e+08
1.9061375e+08
1.9697767e+08
1.7264041e+08
1.6779445e+08
1.7264041e+08
1.6779445e+08
1.5158472e+08
1.4889208e+08
1.5158472e+08
1.4889208e+08
1.2624357e+08
1.2732734e+08
1.2817832e+08
1.2732734e+08
1.080245e+08
1.0986085e+08
1.080245e+08
1.0986085e+08
94669370
95814044
94669370
95814044
80128710
79660987
80128710
79660987
53515656
53670654
53670654
2.0340314e+08
2.0340314e+08
2.0501572e+08
1.9061375e+08
1.9697767e+08
1.9061375e+08
1.9697767e+08
1.7264041e+08
1.6779445e+08
1.7264041e+08
1.6779445e+08
1.5158472e+08
1.4889208e+08
1.5158472e+08
1.4889208e+08
1.2817832e+08
1.2732734e+08
1.2817832e+08
1.2889334e+08
1.080245e+08
1.0986085e+08
1.080245e+08
1.0986085e+08
94669370
95814044
94669370
95814044
80128710
79660987
80128710
79660987
53670654
1.3733063e+08
1.2511311e+08
1.2153791e+08
1.2511311e+08
1.2153791e+08
1.2153791e+08
1.0518732e+08
1.0518732e+08
1.0146155e+08
1.0146155e+08
1.0518732e+08
1.0518732e+08
1.0146155e+08
1.0146155e+08
1.0146155e+08
92864879
92864879
92864879
94769628
94769628
94769628
92864879
92864879
92864879
92864879
94769628
94769628
94769628
76643549
76643549
76643549
76377335
71939669
76723559
76723559
76723559
76377335
76377335
76377335
76377335
76723559
76723559
76723559
76723559
53581471
53581471
53581471
53581471
49257068
49257068
49257068
53581471
53581471
53581471
53581471
49257068
49257068
29269920
29269920
29269920
26993653
26993653
29269920
29269920
29269920
26993653
1.3733063e+08
1.3733063e+08
1.5410749e+08
1.2153791e+08
1.2511311e+08
1.2153791e+08
1.2511311e+08
1.0146155e+08
1.0518732e+08
1.0146155e+08
1.0518732e+08
94769628
92864879
94769628
92864879
76723559
76643549
76723559
49257068
49257068
26993653
26993653
1.6093935e+08
1.3733063e+08
1.5410749e+08
1.3733063e+08
1.5410749e+08
1.2153791e+08
1.2511311e+08
1.2153791e+08
1.2511311e+08
1.0146155e+08
1.0518732e+08
1.0146155e+08
1.0518732e+08
94769628
92864879
88580029
92864879
76723559
76377335
76723559
76377335
49257068
53581471
49257068
53581471
26993653
29269920
26993653
29269920
1.7264041e+08
1.7264041e+08
1.6779445e+08
1.5158472e+08
1.4889208e+08
1.3733063e+08
1.4889208e+08
1.2153791e+08
1.2511311e+08
1.2624357e+08
1.2511311e+08
1.0764989e+08
1.0830713e+08
1.0764989e+08
1.0830713e+08
94669370
91117879
94669370
95814044
80128710
79660987
76723559
79660987
49257068
53581471
53515656
53581471
31046399
31292382
31046399
31292382
1.9061375e+08
1.7264041e+08
1.6779445e+08
1.7264041e+08
1.6779445e+08
1.5158472e+08
1.4889208e+08
1.5158472e+08
1.4889208e+08
1.2624357e+08
1.2732734e+08
1.2624357e+08
1.2732734e+08
1.0764989e+08
1.0830713e+08
1.080245e+08
1.0830713e+08
94669370
95814044
94669370
95814044
80128710
79660987
80128710
79660987
53515656
53670654
53515656
53670654
31046399
31292382
31292382
1.9061375e+08
1.9061375e+08
1.9697767e+08
1.7264041e+08
1.6779445e+08
1.7264041e+08
1.6779445e+08
1.5158472e+08
1.4889208e+08
1.5158472e+08
1.4889208e+08
1.2624357e+08
1.2732734e+08
1.2624357e+08
1.2732734e+08
1.080245e+08
1.0830713e+08
1.080245e+08
1.0986085e+08
94669370
95814044
94669370
95814044
80128710
79660987
80128710
79660987
53515656
53670654
53515656
53670654
31292382
2.0340314e+08
1.9061375e+08
1.9697767e+08
1.9061375e+08
1.9697767e+08
1.7264041e+08
1.6779445e+08
1.7264041e+08
1.6779445e+08
1.5158472e+08
1.4889208e+08
1.5158472e+08
1.4889208e+08
1.2624357e+08
1.2732734e+08
1.2817832e+08
1.2732734e+08
1.080245e+08
1.0986085e+08
1.080245e+08
1.0986085e+08
94669370
95814044
94669370
95814044
80128710
79660987
80128710
79660987
53515656
53670654
53670654
2.0340314e+08
2.0340314e+08
2.0501572e+08
1.9061375e+08
1.9697767e+08
1.9061375e+08
1.9697767e+08
1.7264041e+08
1.6779445e+08
1.7264041e+08
1.6779445e+08
1.5158472e+08
1.4889208e+08
1.5158472e+08
1.4889208e+08
1.2817832e+08
1.2732734e+08
1.2817832e+08
1.2889334e+08
1.080245e+08
1.0986085e+08
1.080245e+08
1.0986085e+08
94669370
95814044
94669370
95814044
80128710
79660987
80128710
79660987
53670654
2.0847636e+08
2.0340314e+08
2.0501572e+08
2.0340314e+08
2.0501572e+08
1.9061375e+08
1.9697767e+08
1.9061375e+08