FoamFile
{
    version     2.0;
    format      ascii;
    class       volScalarField;
    location    "pin_R2A4Ax25/constant/fuel";
    object      volPower;
}

dimensions      [1 -1 -3 0 0 0 0];

internalField   nonuniform List<scalar>
16000
(
 4.20684E+07
 4.20684E+07
 4.20684E+07
 4.20684E+07
 3.96826E+07
 4.20684E+07
 4.20684E+07
 4.20684E+07
 3.96826E+07
 6.57428E+07
 4.20684E+07
 3.96826E+07
 4.20684E+07
 3.96826E+07
 4.20684E+07
 4.20684E+07
 4.20684E+07
 3.96826E+07
 6.57428E+07
 4.20684E+07
 3.96826E+07
 4.20684E+07
 3.96826E+07
 6.57428E+07
 6.57428E+07
 6.74020E+07
 4.20684E+07
 3.96826E+07
 4.20684E+07
 3.96826E+07
 4.20684E+07
 4.20684E+07
 4.20684E+07
 3.96826E+07
 6.57428E+07
 4.20684E+07
 3.96826E+07
 4.20684E+07
 3.96826E+07
 6.57428E+07
 6.57428E+07
 6.74020E+07
 4.20684E+07
 3.96826E+07
 4.20684E+07
 3.96826E+07
 8.60185E+07
 6.57428E+07
 6.74020E+07
 6.57428E+07
 6.74020E+07
 4.20684E+07
 3.96826E+07
 4.20684E+07
 3.96826E+07
 4.20684E+07
 4.20684E+07
 4.20684E+07
 3.96826E+07
 6.57428E+07
 4.20684E+07
 3.96826E+07
 4.20684E+07
 3.96826E+07
 6.57428E+07
 6.57428E+07
 6.74020E+07
 4.20684E+07
 3.96826E+07
 4.20684E+07
 3.96826E+07
 8.60185E+07
 6.57428E+07
 6.74020E+07
 6.57428E+07
 6.74020E+07
 4.20684E+07
 3.96826E+07
 4.20684E+07
 3.96826E+07
 8.60185E+07
 8.60185E+07
 9.18993E+07
 6.57428E+07
 6.74020E+07
 6.57428E+07
 6.74020E+07
 4.20684E+07
 3.96826E+07
 4.20684E+07
 3.96826E+07
 3.40520E+07
 4.20684E+07
 4.20684E+07
 3.96826E+07
 6.57428E+07
 4.20684E+07
 3.96826E+07
 4.20684E+07
 3.96826E+07
 6.57428E+07
 6.57428E+07
 6.74020E+07
 4.20684E+07
 3.96826E+07
 4.20684E+07
 3.96826E+07
 8.60185E+07
 6.57428E+07
 6.74020E+07
 6.57428E+07
 6.74020E+07
 4.20684E+07
 3.96826E+07
 4.20684E+07
 3.96826E+07
 8.60185E+07
 8.60185E+07
 9.18993E+07
 6.57428E+07
 6.74020E+07
 6.57428E+07
 6.74020E+07
 4.20684E+07
 3.96826E+07
 4.20684E+07
 3.96826E+07
 1.24773E+08
 8.60185E+07
 9.18993E+07
 8.60185E+07
 9.18993E+07
 6.57428E+07
 6.74020E+07
 6.57428E+07
 6.74020E+07
 4.20684E+07
 3.96826E+07
 4.20684E+07
 3.96826E+07
 3.40520E+07
 3.40520E+07
 3.40520E+07
 3.51539E+07
 6.57428E+07
 4.20684E+07
 3.96826E+07
 4.20684E+07
 3.96826E+07
 6.57428E+07
 6.57428E+07
 6.74020E+07
 4.20684E+07
 3.96826E+07
 4.20684E+07
 3.96826E+07
 8.60185E+07
 6.57428E+07
 6.74020E+07
 6.57428E+07
 6.74020E+07
 4.20684E+07
 3.96826E+07
 4.20684E+07
 3.96826E+07
 8.60185E+07
 8.60185E+07
 9.18993E+07
 6.57428E+07
 6.74020E+07
 6.57428E+07
 6.74020E+07
 4.20684E+07
 3.96826E+07
 4.20684E+07
 3.96826E+07
 1.24773E+08
 8.60185E+07
 9.18993E+07
 8.60185E+07
 9.18993E+07
 6.57428E+07
 6.74020E+07
 6.57428E+07
 6.74020E+07
 4.20684E+07
 3.96826E+07
 4.20684E+07
 3.96826E+07
 1.24773E+08
 1.24773E+08
 1.27733E+08
 8.60185E+07
 9.18993E+07
 8.60185E+07
 9.18993E+07
 6.57428E+07
 6.74020E+07
 6.57428E+07
 6.74020E+07
 4.20684E+07
 3.96826E+07
 4.20684E+07
 3.96826E+07
 3.40520E+07
 3.40520E+07
 3.40520E+07
 3.51539E+07
 6.32794E+07
 3.40520E+07
 3.51539E+07
 3.40520E+07
 3.51539E+07
 6.57428E+07
 6.57428E+07
 6.74020E+07
 4.20684E+07
 3.96826E+07
 3.40520E+07
 3.96826E+07
 8.60185E+07
 6.57428E+07
 6.74020E+07
 6.57428E+07
 6.74020E+07
 4.20684E+07
 3.96826E+07
 4.20684E+07
 3.96826E+07
 8.60185E+07
 8.60185E+07
 9.18993E+07
 6.57428E+07
 6.74020E+07
 6.57428E+07
 6.74020E+07
 4.20684E+07
 3.96826E+07
 4.20684E+07
 3.96826E+07
 1.24773E+08
 8.60185E+07
 9.18993E+07
 8.60185E+07
 9.18993E+07
 6.57428E+07
 6.74020E+07
 6.57428E+07
 6.74020E+07
 4.20684E+07
 3.96826E+07
 4.20684E+07
 3.96826E+07
 1.24773E+08
 1.24773E+08
 1.27733E+08
 8.60185E+07
 9.18993E+07
 8.60185E+07
 9.18993E+07
 6.57428E+07
 6.74020E+07
 6.57428E+07
 6.74020E+07
 4.20684E+07
 3.96826E+07
 4.20684E+07
 3.96826E+07
 1.49673E+08
 1.24773E+08
 1.27733E+08
 1.24773E+08
 1.27733E+08
 8.60185E+07
 9.18993E+07
 8.60185E+07
 9.18993E+07
 6.57428E+07
 6.74020E+07
 6.57428E+07
 6.74020E+07
 4.20684E+07
 3.96826E+07
 3.83379E+07
 3.96826E+07
 3.40520E+07
 3.51539E+07
 3.40520E+07
 6.32794E+07
 3.40520E+07
 3.51539E+07
 3.40520E+07
 3.51539E+07
 6.32794E+07
 6.32794E+07
 6.20693E+07
 3.40520E+07
 3.51539E+07
 3.40520E+07
 3.51539E+07
 8.60185E+07
 6.57428E+07
 6.74020E+07
 6.57428E+07
 6.74020E+07
 3.40520E+07
 3.96826E+07
 3.40520E+07
 3.51539E+07
 8.60185E+07
 8.60185E+07
 9.18993E+07
 6.57428E+07
 6.74020E+07
 6.57428E+07
 6.74020E+07
 4.20684E+07
 3.96826E+07
 4.20684E+07
 3.96826E+07
 1.24773E+08
 8.60185E+07
 9.18993E+07
 8.60185E+07
 9.18993E+07
 6.57428E+07
 6.74020E+07
 6.57428E+07
 6.74020E+07
 4.20684E+07
 3.96826E+07
 4.20684E+07
 3.96826E+07
 1.24773E+08
 1.24773E+08
 1.27733E+08
 8.60185E+07
 9.18993E+07
 8.60185E+07
 9.18993E+07
 6.57428E+07
 6.74020E+07
 6.57428E+07
 6.74020E+07
 4.20684E+07
 3.96826E+07
 4.20684E+07
 3.96826E+07
 1.49673E+08
 1.24773E+08
 1.27733E+08
 1.24773E+08
 1.27733E+08
 8.60185E+07
 9.18993E+07
 8.60185E+07
 9.18993E+07
 6.57428E+07
 6.74020E+07
 6.57428E+07
 6.74020E+07
 4.20684E+07
 3.96826E+07
 3.83379E+07
 3.96826E+07
 1.49673E+08
 1.49673E+08
 1.42182E+08
 1.24773E+08
 1.27733E+08
 1.24773E+08
 1.27733E+08
 8.60185E+07
 9.18993E+07
 8.60185E+07
 9.18993E+07
 6.57428E+07
 6.74020E+07
 6.57428E+07
 6.74020E+07
 3.83379E+07
 3.96826E+07
 3.83379E+07
 3.73257E+07
 6.20693E+07
 3.51539E+07
 3.40520E+07
 3.51539E+07
 3.40520E+07
 3.40520E+07
 6.32794E+07
 6.32794E+07
 6.20693E+07
 3.40520E+07
 3.51539E+07
 3.40520E+07
 3.51539E+07
 9.17179E+07
 6.32794E+07
 6.20693E+07
 6.32794E+07
 6.20693E+07
 3.40520E+07
 3.51539E+07
 3.40520E+07
 3.51539E+07
 8.60185E+07
 8.60185E+07
 9.18993E+07
 6.57428E+07
 6.74020E+07
 6.32794E+07
 6.74020E+07
 3.40520E+07
 3.51539E+07
 4.20684E+07
 3.51539E+07
 1.24773E+08
 8.60185E+07
 9.18993E+07
 8.60185E+07
 9.18993E+07
 6.57428E+07
 6.74020E+07
 6.57428E+07
 6.74020E+07
 4.20684E+07
 3.96826E+07
 4.20684E+07
 3.96826E+07
 1.24773E+08
 1.24773E+08
 1.27733E+08
 8.60185E+07
 9.18993E+07
 8.60185E+07
 9.18993E+07
 6.57428E+07
 6.74020E+07
 6.57428E+07
 6.74020E+07
 4.20684E+07
 3.96826E+07
 4.20684E+07
 3.96826E+07
 1.49673E+08
 1.24773E+08
 1.27733E+08
 1.24773E+08
 1.27733E+08
 8.60185E+07
 9.18993E+07
 8.60185E+07
 9.18993E+07
 6.57428E+07
 6.74020E+07
 6.57428E+07
 6.74020E+07
 4.20684E+07
 3.96826E+07
 3.83379E+07
 3.96826E+07
 1.49673E+08
 1.49673E+08
 1.42182E+08
 1.24773E+08
 1.27733E+08
 1.24773E+08
 1.27733E+08
 8.60185E+07
 9.18993E+07
 8.60185E+07
 9.18993E+07
 6.57428E+07
 6.74020E+07
 6.57428E+07
 6.74020E+07
 3.83379E+07
 3.96826E+07
 3.83379E+07
 3.73257E+07
 1.63272E+08
 1.49673E+08
 1.42182E+08
 1.49673E+08
 1.42182E+08
 1.24773E+08
 1.27733E+08
 1.24773E+08
 1.27733E+08
 8.60185E+07
 9.18993E+07
 8.60185E+07
 9.18993E+07
 6.57428E+07
 6.74020E+07
 6.94950E+07
 6.74020E+07
 3.83379E+07
 3.73257E+07
 3.83379E+07
 3.73257E+07
 6.32794E+07
 6.20693E+07
 6.32794E+07
 3.51539E+07
 3.40520E+07
 3.40520E+07
 3.51539E+07
 3.51539E+07
 3.40520E+07
 3.40520E+07
 9.17179E+07
 6.32794E+07
 6.20693E+07
 6.32794E+07
 6.20693E+07
 3.40520E+07
 3.51539E+07
 3.40520E+07
 3.51539E+07
 9.17179E+07
 9.17179E+07
 8.56978E+07
 6.32794E+07
 6.20693E+07
 6.32794E+07
 6.20693E+07
 3.40520E+07
 3.51539E+07
 3.40520E+07
 3.51539E+07
 1.24773E+08
 8.60185E+07
 9.18993E+07
 8.60185E+07
 9.18993E+07
 6.32794E+07
 6.74020E+07
 6.32794E+07
 6.20693E+07
 4.20684E+07
 3.51539E+07
 4.20684E+07
 3.96826E+07
 1.24773E+08
 1.24773E+08
 1.27733E+08
 8.60185E+07
 9.18993E+07
 8.60185E+07
 9.18993E+07
 6.57428E+07
 6.74020E+07
 6.57428E+07
 6.74020E+07
 4.20684E+07
 3.96826E+07
 4.20684E+07
 3.96826E+07
 1.49673E+08
 1.24773E+08
 1.27733E+08
 1.24773E+08
 1.27733E+08
 8.60185E+07
 9.18993E+07
 8.60185E+07
 9.18993E+07
 6.57428E+07
 6.74020E+07
 6.57428E+07
 6.74020E+07
 4.20684E+07
 3.96826E+07
 3.83379E+07
 3.96826E+07
 1.49673E+08
 1.49673E+08
 1.42182E+08
 1.24773E+08
 1.27733E+08
 1.24773E+08
 1.27733E+08
 8.60185E+07
 9.18993E+07
 8.60185E+07
 9.18993E+07
 6.57428E+07
 6.74020E+07
 6.57428E+07
 6.74020E+07
 3.83379E+07
 3.96826E+07
 3.83379E+07
 3.73257E+07
 1.63272E+08
 1.49673E+08
 1.42182E+08
 1.49673E+08
 1.42182E+08
 1.24773E+08
 1.27733E+08
 1.24773E+08
 1.27733E+08
 8.60185E+07
 9.18993E+07
 8.60185E+07
 9.18993E+07
 6.57428E+07
 6.74020E+07
 6.94950E+07
 6.74020E+07
 3.83379E+07
 3.73257E+07
 3.83379E+07
 3.73257E+07
 1.63272E+08
 1.63272E+08
 1.61874E+08
 1.49673E+08
 1.42182E+08
 1.49673E+08
 1.42182E+08
 1.24773E+08
 1.27733E+08
 1.24773E+08
 1.27733E+08
 8.60185E+07
 9.18993E+07
 8.60185E+07
 9.18993E+07
 6.94950E+07
 6.74020E+07
 6.94950E+07
 6.47015E+07
 3.83379E+07
 3.73257E+07
 3.83379E+07
 3.73257E+07
 9.17179E+07
 6.20693E+07
 6.32794E+07
 6.20693E+07
 6.32794E+07
 6.32794E+07
 3.51539E+07
 3.51539E+07
 3.40520E+07
 3.40520E+07
 3.51539E+07
 3.51539E+07
 3.40520E+07
 3.40520E+07
 3.40520E+07
 9.17179E+07
 9.17179E+07
 8.56978E+07
 6.32794E+07
 6.20693E+07
 6.32794E+07
 6.20693E+07
 3.40520E+07
 3.51539E+07
 3.40520E+07
 3.51539E+07
 1.17985E+08
 9.17179E+07
 8.56978E+07
 9.17179E+07
 8.56978E+07
 6.32794E+07
 6.20693E+07
 6.32794E+07
 6.20693E+07
 3.40520E+07
 3.51539E+07
 3.40520E+07
 3.51539E+07
 1.24773E+08
 1.24773E+08
 1.27733E+08
 8.60185E+07
 9.18993E+07
 9.17179E+07
 9.18993E+07
 6.32794E+07
 6.20693E+07
 6.57428E+07
 6.20693E+07
 4.20684E+07
 3.96826E+07
 4.20684E+07
 3.96826E+07
 1.49673E+08
 1.24773E+08
 1.27733E+08
 1.24773E+08
 1.27733E+08
 8.60185E+07
 9.18993E+07
 8.60185E+07
 9.18993E+07
 6.57428E+07
 6.74020E+07
 6.57428E+07
 6.74020E+07
 4.20684E+07
 3.96826E+07
 3.83379E+07
 3.96826E+07
 1.49673E+08
 1.49673E+08
 1.42182E+08
 1.24773E+08
 1.27733E+08
 1.24773E+08
 1.27733E+08
 8.60185E+07
 9.18993E+07
 8.60185E+07
 9.18993E+07
 6.57428E+07
 6.74020E+07
 6.57428E+07
 6.74020E+07
 3.83379E+07
 3.96826E+07
 3.83379E+07
 3.73257E+07
 1.63272E+08
 1.49673E+08
 1.42182E+08
 1.49673E+08
 1.42182E+08
 1.24773E+08
 1.27733E+08
 1.24773E+08
 1.27733E+08
 8.60185E+07
 9.18993E+07
 8.60185E+07
 9.18993E+07
 6.57428E+07
 6.74020E+07
 6.94950E+07
 6.74020E+07
 3.83379E+07
 3.73257E+07
 3.83379E+07
 3.73257E+07
 1.63272E+08
 1.63272E+08
 1.61874E+08
 1.49673E+08
 1.42182E+08
 1.49673E+08
 1.42182E+08
 1.24773E+08
 1.27733E+08
 1.24773E+08
 1.27733E+08
 8.60185E+07
 9.18993E+07
 8.60185E+07
 9.18993E+07
 6.94950E+07
 6.74020E+07
 6.94950E+07
 6.47015E+07
 3.83379E+07
 3.73257E+07
 3.83379E+07
 3.73257E+07
 1.75459E+08
 1.63272E+08
 1.61874E+08
 1.63272E+08
 1.61874E+08
 1.49673E+08
 1.42182E+08
 1.49673E+08
 1.42182E+08
 1.24773E+08
 1.27733E+08
 1.24773E+08
 1.27733E+08
 8.60185E+07
 9.18993E+07
 8.67317E+07
 9.18993E+07
 6.94950E+07
 6.47015E+07
 6.94950E+07
 6.47015E+07
 3.83379E+07
 3.73257E+07
 3.83379E+07
 3.73257E+07
 9.17179E+07
 8.56978E+07
 9.17179E+07
 6.20693E+07
 6.32794E+07
 6.32794E+07
 6.20693E+07
 6.20693E+07
 6.32794E+07
 6.32794E+07
 3.51539E+07
 3.51539E+07
 3.40520E+07
 3.40520E+07
 3.40520E+07
 3.51539E+07
 3.51539E+07
 3.51539E+07
 3.40520E+07
 3.40520E+07
 3.40520E+07
 1.17985E+08
 9.17179E+07
 8.56978E+07
 9.17179E+07
 8.56978E+07
 6.32794E+07
 6.20693E+07
 6.32794E+07
 6.20693E+07
 3.40520E+07
 3.51539E+07
 3.40520E+07
 3.51539E+07
 1.17985E+08
 1.17985E+08
 1.23503E+08
 9.17179E+07
 8.56978E+07
 9.17179E+07
 8.56978E+07
 6.32794E+07
 6.20693E+07
 6.32794E+07
 6.20693E+07
 3.40520E+07
 3.51539E+07
 3.40520E+07
 3.51539E+07
 1.49673E+08
 1.24773E+08
 1.27733E+08
 1.24773E+08
 1.27733E+08
 9.17179E+07
 9.18993E+07
 9.17179E+07
 8.56978E+07
 6.57428E+07
 6.20693E+07
 6.57428E+07
 6.74020E+07
 4.20684E+07
 3.96826E+07
 3.83379E+07
 3.96826E+07
 1.49673E+08
 1.49673E+08
 1.42182E+08
 1.24773E+08
 1.27733E+08
 1.24773E+08
 1.27733E+08
 8.60185E+07
 9.18993E+07
 8.60185E+07
 9.18993E+07
 6.57428E+07
 6.74020E+07
 6.57428E+07
 6.74020E+07
 3.83379E+07
 3.96826E+07
 3.83379E+07
 3.73257E+07
 1.63272E+08
 1.49673E+08
 1.42182E+08
 1.49673E+08
 1.42182E+08
 1.24773E+08
 1.27733E+08
 1.24773E+08
 1.27733E+08
 8.60185E+07
 9.18993E+07
 8.60185E+07
 9.18993E+07
 6.57428E+07
 6.74020E+07
 6.94950E+07
 6.74020E+07
 3.83379E+07
 3.73257E+07
 3.83379E+07
 3.73257E+07
 1.63272E+08
 1.63272E+08
 1.61874E+08
 1.49673E+08
 1.42182E+08
 1.49673E+08
 1.42182E+08
 1.24773E+08
 1.27733E+08
 1.24773E+08
 1.27733E+08
 8.60185E+07
 9.18993E+07
 8.60185E+07
 9.18993E+07
 6.94950E+07
 6.74020E+07
 6.94950E+07
 6.47015E+07
 3.83379E+07
 3.73257E+07
 3.83379E+07
 3.73257E+07
 1.75459E+08
 1.63272E+08
 1.61874E+08
 1.63272E+08
 1.61874E+08
 1.49673E+08
 1.42182E+08
 1.49673E+08
 1.42182E+08
 1.24773E+08
 1.27733E+08
 1.24773E+08
 1.27733E+08
 8.60185E+07
 9.18993E+07
 8.67317E+07
 9.18993E+07
 6.94950E+07
 6.47015E+07
 6.94950E+07
 6.47015E+07
 3.83379E+07
 3.73257E+07
 3.83379E+07
 3.73257E+07
 1.75459E+08
 1.75459E+08
 1.80906E+08
 1.63272E+08
 1.61874E+08
 1.63272E+08
 1.61874E+08
 1.49673E+08
 1.42182E+08
 1.49673E+08
 1.42182E+08
 1.24773E+08
 1.27733E+08
 1.24773E+08
 1.27733E+08
 8.67317E+07
 9.18993E+07
 8.67317E+07
 8.57015E+07
 6.94950E+07
 6.47015E+07
 6.94950E+07
 6.47015E+07
 3.83379E+07
 3.73257E+07
 3.83379E+07
 3.73257E+07
 1.17985E+08
 8.56978E+07
 9.17179E+07
 8.56978E+07
 9.17179E+07
 9.17179E+07
 6.20693E+07
 6.20693E+07
 6.32794E+07
 6.32794E+07
 6.20693E+07
 6.20693E+07
 6.32794E+07
 6.32794E+07
 6.32794E+07
 3.51539E+07
 3.51539E+07
 3.51539E+07
 3.40520E+07
 3.40520E+07
 3.40520E+07
 3.51539E+07
 3.51539E+07
 3.51539E+07
 3.51539E+07
 3.40520E+07
 3.40520E+07
 3.40520E+07
 1.17985E+08
 1.17985E+08
 1.23503E+08
 9.17179E+07
 8.56978E+07
 9.17179E+07
 8.56978E+07
 6.32794E+07
 6.20693E+07
 6.32794E+07
 6.20693E+07
 3.40520E+07
 3.51539E+07
 3.40520E+07
 3.51539E+07
 1.35764E+08
 1.17985E+08
 1.23503E+08
 1.17985E+08
 1.23503E+08
 9.17179E+07
 8.56978E+07
 9.17179E+07
 8.56978E+07
 6.32794E+07
 6.20693E+07
 6.32794E+07
 6.20693E+07
 3.40520E+07
 3.51539E+07
 3.35030E+07
 3.51539E+07
 1.49673E+08
 1.49673E+08
 1.42182E+08
 1.24773E+08
 1.27733E+08
 1.17985E+08
 1.27733E+08
 9.17179E+07
 8.56978E+07
 8.60185E+07
 8.56978E+07
 6.57428E+07
 6.74020E+07
 6.57428E+07
 6.74020E+07
 3.83379E+07
 3.96826E+07
 3.83379E+07
 3.73257E+07
 1.63272E+08
 1.49673E+08
 1.42182E+08
 1.49673E+08
 1.42182E+08
 1.24773E+08
 1.27733E+08
 1.24773E+08
 1.27733E+08
 8.60185E+07
 9.18993E+07
 8.60185E+07
 9.18993E+07
 6.57428E+07
 6.74020E+07
 6.94950E+07
 6.74020E+07
 3.83379E+07
 3.73257E+07
 3.83379E+07
 3.73257E+07
 1.63272E+08
 1.63272E+08
 1.61874E+08
 1.49673E+08
 1.42182E+08
 1.49673E+08
 1.42182E+08
 1.24773E+08
 1.27733E+08
 1.24773E+08
 1.27733E+08
 8.60185E+07
 9.18993E+07
 8.60185E+07
 9.18993E+07
 6.94950E+07
 6.74020E+07
 6.94950E+07
 6.47015E+07
 3.83379E+07
 3.73257E+07
 3.83379E+07
 3.73257E+07
 1.75459E+08
 1.63272E+08
 1.61874E+08
 1.63272E+08
 1.61874E+08
 1.49673E+08
 1.42182E+08
 1.49673E+08
 1.42182E+08
 1.24773E+08
 1.27733E+08
 1.24773E+08
 1.27733E+08
 8.60185E+07
 9.18993E+07
 8.67317E+07
 9.18993E+07
 6.94950E+07
 6.47015E+07
 6.94950E+07
 6.47015E+07
 3.83379E+07
 3.73257E+07
 3.83379E+07
 3.73257E+07
 1.75459E+08
 1.75459E+08
 1.80906E+08
 1.63272E+08
 1.61874E+08
 1.63272E+08
 1.61874E+08
 1.49673E+08
 1.42182E+08
 1.49673E+08
 1.42182E+08
 1.24773E+08
 1.27733E+08
 1.24773E+08
 1.27733E+08
 8.67317E+07
 9.18993E+07
 8.67317E+07
 8.57015E+07
 6.94950E+07
 6.47015E+07
 6.94950E+07
 6.47015E+07
 3.83379E+07
 3.73257E+07
 3.83379E+07
 3.73257E+07
 1.97727E+08
 1.75459E+08
 1.80906E+08
 1.75459E+08
 1.80906E+08
 1.63272E+08
 1.61874E+08
 1.63272E+08
 1.61874E+08
 1.49673E+08
 1.42182E+08
 1.49673E+08
 1.42182E+08
 1.24773E+08
 1.27733E+08
 1.24949E+08
 1.27733E+08
 8.67317E+07
 8.57015E+07
 8.67317E+07
 8.57015E+07
 6.94950E+07
 6.47015E+07
 6.94950E+07
 6.47015E+07
 3.83379E+07
 3.73257E+07
 3.83379E+07
 3.73257E+07
 1.17985E+08
 1.23503E+08
 1.17985E+08
 8.56978E+07
 9.17179E+07
 9.17179E+07
 8.56978E+07
 8.56978E+07
 9.17179E+07
 9.17179E+07
 6.20693E+07
 6.20693E+07
 6.32794E+07
 6.32794E+07
 6.32794E+07
 6.20693E+07
 6.20693E+07
 6.20693E+07
 6.32794E+07
 6.32794E+07
 6.32794E+07
 3.51539E+07
 3.51539E+07
 3.51539E+07
 3.51539E+07
 3.40520E+07
 3.40520E+07
 3.40520E+07
 3.51539E+07
 3.51539E+07
 3.51539E+07
 3.83354E+07
 3.40520E+07
 3.35030E+07
 3.35030E+07
 3.35030E+07
 1.35764E+08
 1.17985E+08
 1.23503E+08
 1.17985E+08
 1.23503E+08
 9.17179E+07
 8.56978E+07
 9.17179E+07
 8.56978E+07
 6.32794E+07
 6.20693E+07
 6.32794E+07
 6.20693E+07
 3.40520E+07
 3.51539E+07
 3.35030E+07
 3.51539E+07
 1.35764E+08
 1.35764E+08
 1.29638E+08
 1.17985E+08
 1.23503E+08
 1.17985E+08
 1.23503E+08
 9.17179E+07
 8.56978E+07
 9.17179E+07
 8.56978E+07
 6.32794E+07
 6.20693E+07
 6.32794E+07
 6.20693E+07
 3.35030E+07
 3.51539E+07
 3.35030E+07
 3.83354E+07
 1.63272E+08
 1.49673E+08
 1.42182E+08
 1.49673E+08
 1.42182E+08
 1.17985E+08
 1.27733E+08
 1.17985E+08
 1.23503E+08
 8.60185E+07
 8.56978E+07
 8.60185E+07
 9.18993E+07
 6.57428E+07
 6.74020E+07
 6.94950E+07
 6.74020E+07
 3.83379E+07
 3.73257E+07
 3.83379E+07
 3.73257E+07
 1.63272E+08
 1.63272E+08
 1.61874E+08
 1.49673E+08
 1.42182E+08
 1.49673E+08
 1.42182E+08
 1.24773E+08
 1.27733E+08
 1.24773E+08
 1.27733E+08
 8.60185E+07
 9.18993E+07
 8.60185E+07
 9.18993E+07
 6.94950E+07
 6.74020E+07
 6.94950E+07
 6.47015E+07
 3.83379E+07
 3.73257E+07
 3.83379E+07
 3.73257E+07
 1.75459E+08
 1.63272E+08
 1.61874E+08
 1.63272E+08
 1.61874E+08
 1.49673E+08
 1.42182E+08
 1.49673E+08
 1.42182E+08
 1.24773E+08
 1.27733E+08
 1.24773E+08
 1.27733E+08
 8.60185E+07
 9.18993E+07
 8.67317E+07
 9.18993E+07
 6.94950E+07
 6.47015E+07
 6.94950E+07
 6.47015E+07
 3.83379E+07
 3.73257E+07
 3.83379E+07
 3.73257E+07
 1.75459E+08
 1.75459E+08
 1.80906E+08
 1.63272E+08
 1.61874E+08
 1.63272E+08
 1.61874E+08
 1.49673E+08
 1.42182E+08
 1.49673E+08
 1.42182E+08
 1.24773E+08
 1.27733E+08
 1.24773E+08
 1.27733E+08
 8.67317E+07
 9.18993E+07
 8.67317E+07
 8.57015E+07
 6.94950E+07
 6.47015E+07
 6.94950E+07
 6.47015E+07
 3.83379E+07
 3.73257E+07
 3.83379E+07
 3.73257E+07
 1.97727E+08
 1.75459E+08
 1.80906E+08
 1.75459E+08
 1.80906E+08
 1.63272E+08
 1.61874E+08
 1.63272E+08
 1.61874E+08
 1.49673E+08
 1.42182E+08
 1.49673E+08
 1.42182E+08
 1.24773E+08
 1.27733E+08
 1.24949E+08
 1.27733E+08
 8.67317E+07
 8.57015E+07
 8.67317E+07
 8.57015E+07
 6.94950E+07
 6.47015E+07
 6.94950E+07
 6.47015E+07
 3.83379E+07
 3.73257E+07
 3.83379E+07
 3.73257E+07
 1.97727E+08
 1.97727E+08
 1.93904E+08
 1.75459E+08
 1.80906E+08
 1.75459E+08
 1.80906E+08
 1.63272E+08
 1.61874E+08
 1.63272E+08
 1.61874E+08
 1.49673E+08
 1.42182E+08
 1.49673E+08
 1.42182E+08
 1.24949E+08
 1.27733E+08
 1.24949E+08
 1.20073E+08
 8.67317E+07
 8.57015E+07
 8.67317E+07
 8.57015E+07
 6.94950E+07
 6.47015E+07
 6.94950E+07
 6.47015E+07
 3.83379E+07
 3.73257E+07
 3.83379E+07
 3.73257E+07
 1.35764E+08
 1.23503E+08
 1.17985E+08
 1.23503E+08
 1.17985E+08
 1.17985E+08
 8.56978E+07
 8.56978E+07
 9.17179E+07
 9.17179E+07
 8.56978E+07
 8.56978E+07
 9.17179E+07
 9.17179E+07
 9.17179E+07
 6.20693E+07
 6.20693E+07
 6.20693E+07
 6.32794E+07
 6.32794E+07
 6.32794E+07
 6.20693E+07
 6.20693E+07
 6.20693E+07
 6.20693E+07
 6.32794E+07
 6.32794E+07
 6.32794E+07
 3.51539E+07
 3.51539E+07
 3.51539E+07
 3.83354E+07
 3.40520E+07
 3.35030E+07
 3.35030E+07
 3.35030E+07
 3.83354E+07
 3.83354E+07
 3.83354E+07
 3.83354E+07
 3.35030E+07
 3.35030E+07
 3.35030E+07
 3.35030E+07
 1.35764E+08
 1.35764E+08
 1.29638E+08
 1.17985E+08
 1.23503E+08
 1.17985E+08
 1.23503E+08
 9.17179E+07
 8.56978E+07
 9.17179E+07
 8.56978E+07
 6.32794E+07
 6.20693E+07
 6.32794E+07
 6.20693E+07
 3.35030E+07
 3.51539E+07
 3.35030E+07
 1.60142E+08
 1.35764E+08
 1.29638E+08
 1.35764E+08
 1.29638E+08
 1.17985E+08
 1.23503E+08
 1.17985E+08
 1.23503E+08
 9.17179E+07
 8.56978E+07
 9.17179E+07
 8.56978E+07
 6.32794E+07
 6.20693E+07
 6.63443E+07
 6.20693E+07
 3.35030E+07
 3.83354E+07
 3.35030E+07
 3.83354E+07
 1.63272E+08
 1.63272E+08
 1.61874E+08
 1.49673E+08
 1.42182E+08
 1.35764E+08
 1.42182E+08
 1.17985E+08
 1.23503E+08
 1.24773E+08
 1.23503E+08
 8.60185E+07
 9.18993E+07
 8.60185E+07
 9.18993E+07
 6.94950E+07
 6.74020E+07
 6.94950E+07
 6.47015E+07
 3.83379E+07
 3.73257E+07
 3.35030E+07
 3.73257E+07
 1.75459E+08
 1.63272E+08
 1.61874E+08
 1.63272E+08
 1.61874E+08
 1.49673E+08
 1.42182E+08
 1.49673E+08
 1.42182E+08
 1.24773E+08
 1.27733E+08
 1.24773E+08
 1.27733E+08
 8.60185E+07
 9.18993E+07
 8.67317E+07
 9.18993E+07
 6.94950E+07
 6.47015E+07
 6.94950E+07
 6.47015E+07
 3.83379E+07
 3.73257E+07
 3.83379E+07
 3.73257E+07
 1.75459E+08
 1.75459E+08
 1.80906E+08
 1.63272E+08
 1.61874E+08
 1.63272E+08
 1.61874E+08
 1.49673E+08
 1.42182E+08
 1.49673E+08
 1.42182E+08
 1.24773E+08
 1.27733E+08
 1.24773E+08
 1.27733E+08
 8.67317E+07
 9.18993E+07
 8.67317E+07
 8.57015E+07
 6.94950E+07
 6.47015E+07
 6.94950E+07
 6.47015E+07
 3.83379E+07
 3.73257E+07
 3.83379E+07
 3.73257E+07
 1.97727E+08
 1.75459E+08
 1.80906E+08
 1.75459E+08
 1.80906E+08
 1.63272E+08
 1.61874E+08
 1.63272E+08
 1.61874E+08
 1.49673E+08
 1.42182E+08
 1.49673E+08
 1.42182E+08
 1.24773E+08
 1.27733E+08
 1.24949E+08
 1.27733E+08
 8.67317E+07
 8.57015E+07
 8.67317E+07
 8.57015E+07
 6.94950E+07
 6.47015E+07
 6.94950E+07
 6.47015E+07
 3.83379E+07
 3.73257E+07
 3.83379E+07
 3.73257E+07
 1.97727E+08
 1.97727E+08
 1.93904E+08
 1.75459E+08
 1.80906E+08
 1.75459E+08
 1.80906E+08
 1.63272E+08
 1.61874E+08
 1.63272E+08
 1.61874E+08
 1.49673E+08
 1.42182E+08
 1.49673E+08
 1.42182E+08
 1.24949E+08
 1.27733E+08
 1.24949E+08
 1.20073E+08
 8.67317E+07
 8.57015E+07
 8.67317E+07
 8.57015E+07
 6.94950E+07
 6.47015E+07
 6.94950E+07
 6.47015E+07
 3.83379E+07
 3.73257E+07
 3.83379E+07
 3.73257E+07
 1.87830E+08
 1.97727E+08
 1.93904E+08
 1.97727E+08
 1.93904E+08
 1.75459E+08
 1.80906E+08
 1.75459E+08
 1.80906E+08
 1.63272E+08
 1.61874E+08
 1.63272E+08
 1.61874E+08
 1.49673E+08
 1.42182E+08
 1.54176E+08
 1.42182E+08
 1.24949E+08
 1.20073E+08
 1.24949E+08
 1.20073E+08
 8.67317E+07
 8.57015E+07
 8.67317E+07
 8.57015E+07
 6.94950E+07
 6.47015E+07
 6.94950E+07
 6.47015E+07
 3.83379E+07
 3.73257E+07
 3.73257E+07
 1.35764E+08
 1.29638E+08
 1.35764E+08
 1.23503E+08
 1.17985E+08
 1.17985E+08
 1.23503E+08
 1.23503E+08
 1.17985E+08
 1.17985E+08
 8.56978E+07
 8.56978E+07
 9.17179E+07
 9.17179E+07
 9.17179E+07
 8.56978E+07
 8.56978E+07
 8.56978E+07
 9.17179E+07
 9.17179E+07
 9.17179E+07
 6.20693E+07
 6.20693E+07
 6.20693E+07
 6.20693E+07
 6.32794E+07
 6.32794E+07
 6.32794E+07
 6.20693E+07
 6.20693E+07
 6.20693E+07
 6.16015E+07
 6.32794E+07
 6.63443E+07
 6.63443E+07
 6.63443E+07
 3.83354E+07
 3.83354E+07
 3.83354E+07
 3.83354E+07
 3.35030E+07
 3.35030E+07
 3.35030E+07
 3.35030E+07
 3.83354E+07
 3.83354E+07
 3.83354E+07
 3.83354E+07
 3.35030E+07
 3.35030E+07
 3.35030E+07
 1.60142E+08
 1.35764E+08
 1.29638E+08
 1.35764E+08
 1.29638E+08
 1.17985E+08
 1.23503E+08
 1.17985E+08
 1.23503E+08
 9.17179E+07
 8.56978E+07
 9.17179E+07
 8.56978E+07
 6.32794E+07
 6.20693E+07
 6.63443E+07
 6.20693E+07
 3.35030E+07
 3.35030E+07
 1.60142E+08
 1.60142E+08
 1.56083E+08
 1.35764E+08
 1.29638E+08
 1.35764E+08
 1.29638E+08
 1.17985E+08
 1.23503E+08
 1.17985E+08
 1.23503E+08
 9.17179E+07
 8.56978E+07
 9.17179E+07
 8.56978E+07
 6.63443E+07
 6.20693E+07
 6.63443E+07
 6.16015E+07
 3.35030E+07
 3.83354E+07
 3.35030E+07
 3.83354E+07
 1.75459E+08
 1.63272E+08
 1.61874E+08
 1.63272E+08
 1.61874E+08
 1.35764E+08
 1.42182E+08
 1.35764E+08
 1.29638E+08
 1.24773E+08
 1.23503E+08
 1.24773E+08
 1.27733E+08
 8.60185E+07
 9.18993E+07
 8.67317E+07
 9.18993E+07
 6.94950E+07
 6.47015E+07
 6.94950E+07
 6.47015E+07
 3.35030E+07
 3.73257E+07
 3.35030E+07
 3.83354E+07
 1.75459E+08
 1.75459E+08
 1.80906E+08
 1.63272E+08
 1.61874E+08
 1.63272E+08
 1.61874E+08
 1.49673E+08
 1.42182E+08
 1.49673E+08
 1.42182E+08
 1.24773E+08
 1.27733E+08
 1.24773E+08
 1.27733E+08
 8.67317E+07
 9.18993E+07
 8.67317E+07
 8.57015E+07
 6.94950E+07
 6.47015E+07
 6.94950E+07
 6.47015E+07
 3.83379E+07
 3.73257E+07
 3.83379E+07
 3.73257E+07
 1.97727E+08
 1.75459E+08
 1.80906E+08
 1.75459E+08
 1.80906E+08
 1.63272E+08
 1.61874E+08
 1.63272E+08
 1.61874E+08
 1.49673E+08
 1.42182E+08
 1.49673E+08
 1.42182E+08
 1.24773E+08
 1.27733E+08
 1.24949E+08
 1.27733E+08
 8.67317E+07
 8.57015E+07
 8.67317E+07
 8.57015E+07
 6.94950E+07
 6.47015E+07
 6.94950E+07
 6.47015E+07
 3.83379E+07
 3.73257E+07
 3.83379E+07
 3.73257E+07
 1.97727E+08
 1.97727E+08
 1.93904E+08
 1.75459E+08
 1.80906E+08
 1.75459E+08
 1.80906E+08
 1.63272E+08
 1.61874E+08
 1.63272E+08
 1.61874E+08
 1.49673E+08
 1.42182E+08
 1.49673E+08
 1.42182E+08
 1.24949E+08
 1.27733E+08
 1.24949E+08
 1.20073E+08
 8.67317E+07
 8.57015E+07
 8.67317E+07
 8.57015E+07
 6.94950E+07
 6.47015E+07
 6.94950E+07
 6.47015E+07
 3.83379E+07
 3.73257E+07
 3.83379E+07
 3.73257E+07
 1.87830E+08
 1.97727E+08
 1.93904E+08
 1.97727E+08
 1.93904E+08
 1.75459E+08
 1.80906E+08
 1.75459E+08
 1.80906E+08
 1.63272E+08
 1.61874E+08
 1.63272E+08
 1.61874E+08
 1.49673E+08
 1.42182E+08
 1.54176E+08
 1.42182E+08
 1.24949E+08
 1.20073E+08
 1.24949E+08
 1.20073E+08
 8.67317E+07
 8.57015E+07
 8.67317E+07
 8.57015E+07
 6.94950E+07
 6.47015E+07
 6.94950E+07
 6.47015E+07
 3.83379E+07
 3.73257E+07
 3.73257E+07
 1.87830E+08
 1.87830E+08
 1.97033E+08
 1.97727E+08
 1.93904E+08
 1.97727E+08
 1.93904E+08
 1.75459E+08
 1.80906E+08
 1.75459E+08
 1.80906E+08
 1.63272E+08
 1.61874E+08
 1.63272E+08
 1.61874E+08
 1.54176E+08
 1.42182E+08
 1.54176E+08
 1.42203E+08
 1.24949E+08
 1.20073E+08
 1.24949E+08
 1.20073E+08
 8.67317E+07
 8.57015E+07
 8.67317E+07
 8.57015E+07
 6.94950E+07
 6.47015E+07
 6.94950E+07
 6.47015E+07
 3.73257E+07
 1.60142E+08
 1.29638E+08
 1.35764E+08
 1.29638E+08
 1.35764E+08
 1.35764E+08
 1.23503E+08
 1.23503E+08
 1.17985E+08
 1.17985E+08
 1.23503E+08
 1.23503E+08
 1.17985E+08
 1.17985E+08
 1.17985E+08
 8.56978E+07
 8.56978E+07
 8.56978E+07
 9.17179E+07
 9.17179E+07
 9.17179E+07
 8.56978E+07
 8.56978E+07
 8.56978E+07
 8.56978E+07
 9.17179E+07
 9.17179E+07
 9.17179E+07
 6.20693E+07
 6.20693E+07
 6.20693E+07
 6.16015E+07
 6.32794E+07
 6.63443E+07
 6.63443E+07
 6.63443E+07
 6.16015E+07
 6.16015E+07
 6.16015E+07
 6.16015E+07
 6.63443E+07
 6.63443E+07
 6.63443E+07
 6.63443E+07
 3.83354E+07
 3.83354E+07
 3.83354E+07
 3.83354E+07
 3.35030E+07
 3.35030E+07
 3.35030E+07
 3.83354E+07
 3.83354E+07
 3.83354E+07
 3.35030E+07
 3.35030E+07
 3.35030E+07
 1.60142E+08
 1.60142E+08
 1.56083E+08
 1.35764E+08
 1.29638E+08
 1.35764E+08
 1.29638E+08
 1.17985E+08
 1.23503E+08
 1.17985E+08
 1.23503E+08
 9.17179E+07
 8.56978E+07
 9.17179E+07
 8.56978E+07
 6.63443E+07
 6.20693E+07
 6.63443E+07
 3.35030E+07
 3.35030E+07
 1.63628E+08
 1.60142E+08
 1.56083E+08
 1.60142E+08
 1.56083E+08
 1.35764E+08
 1.29638E+08
 1.35764E+08
 1.29638E+08
 1.17985E+08
 1.23503E+08
 1.17985E+08
 1.23503E+08
 9.17179E+07
 8.56978E+07
 8.57084E+07
 8.56978E+07
 6.63443E+07
 6.16015E+07
 6.63443E+07
 6.16015E+07
 3.35030E+07
 3.83354E+07
 3.35030E+07
 3.83354E+07
 1.75459E+08
 1.75459E+08
 1.80906E+08
 1.63272E+08
 1.61874E+08
 1.60142E+08
 1.61874E+08
 1.35764E+08
 1.29638E+08
 1.49673E+08
 1.29638E+08
 1.24773E+08
 1.27733E+08
 1.24773E+08
 1.27733E+08
 8.67317E+07
 9.18993E+07
 8.67317E+07
 8.57015E+07
 6.94950E+07
 6.47015E+07
 6.63443E+07
 6.47015E+07
 3.35030E+07
 3.83354E+07
 3.83379E+07
 3.83354E+07
 1.97727E+08
 1.75459E+08
 1.80906E+08
 1.75459E+08
 1.80906E+08
 1.63272E+08
 1.61874E+08
 1.63272E+08
 1.61874E+08
 1.49673E+08
 1.42182E+08
 1.49673E+08
 1.42182E+08
 1.24773E+08
 1.27733E+08
 1.24949E+08
 1.27733E+08
 8.67317E+07
 8.57015E+07
 8.67317E+07
 8.57015E+07
 6.94950E+07
 6.47015E+07
 6.94950E+07
 6.47015E+07
 3.83379E+07
 3.73257E+07
 3.83379E+07
 3.73257E+07
 1.97727E+08
 1.97727E+08
 1.93904E+08
 1.75459E+08
 1.80906E+08
 1.75459E+08
 1.80906E+08
 1.63272E+08
 1.61874E+08
 1.63272E+08
 1.61874E+08
 1.49673E+08
 1.42182E+08
 1.49673E+08
 1.42182E+08
 1.24949E+08
 1.27733E+08
 1.24949E+08
 1.20073E+08
 8.67317E+07
 8.57015E+07
 8.67317E+07
 8.57015E+07
 6.94950E+07
 6.47015E+07
 6.94950E+07
 6.47015E+07
 3.83379E+07
 3.73257E+07
 3.83379E+07
 3.73257E+07
 1.87830E+08
 1.97727E+08
 1.93904E+08
 1.97727E+08
 1.93904E+08
 1.75459E+08
 1.80906E+08
 1.75459E+08
 1.80906E+08
 1.63272E+08
 1.61874E+08
 1.63272E+08
 1.61874E+08
 1.49673E+08
 1.42182E+08
 1.54176E+08
 1.42182E+08
 1.24949E+08
 1.20073E+08
 1.24949E+08
 1.20073E+08
 8.67317E+07
 8.57015E+07
 8.67317E+07
 8.57015E+07
 6.94950E+07
 6.47015E+07
 6.94950E+07
 6.47015E+07
 3.83379E+07
 3.73257E+07
 3.73257E+07
 1.87830E+08
 1.87830E+08
 1.97033E+08
 1.97727E+08
 1.93904E+08
 1.97727E+08
 1.93904E+08
 1.75459E+08
 1.80906E+08
 1.75459E+08
 1.80906E+08
 1.63272E+08
 1.61874E+08
 1.63272E+08
 1.61874E+08
 1.54176E+08
 1.42182E+08
 1.54176E+08
 1.42203E+08
 1.24949E+08
 1.20073E+08
 1.24949E+08
 1.20073E+08
 8.67317E+07
 8.57015E+07
 8.67317E+07
 8.57015E+07
 6.94950E+07
 6.47015E+07
 6.94950E+07
 6.47015E+07
 3.73257E+07
 2.00555E+08
 1.87830E+08
 1.97033E+08
 1.87830E+08
 1.97033E+08
 1.97727E+08
 1.93904E+08
 1.97727E+08
 1.93904E+08
 1.75459E+08
 1.80906E+08
 1.75459E+08
 1.80906E+08
 1.63272E+08
 1.61874E+08
 1.59365E+08
 1.61874E+08
 1.54176E+08
 1.42203E+08
 1.54176E+08
 1.42203E+08
 1.24949E+08
 1.20073E+08
 1.24949E+08
 1.20073E+08
 8.67317E+07
 8.57015E+07
 8.67317E+07
 8.57015E+07
 6.94950E+07
 6.47015E+07
 6.47015E+07
 1.60142E+08
 1.56083E+08
 1.60142E+08
 1.29638E+08
 1.35764E+08
 1.35764E+08
 1.29638E+08
 1.29638E+08
 1.35764E+08
 1.35764E+08
 1.23503E+08
 1.23503E+08
 1.23503E+08
 1.17985E+08
 1.17985E+08
 1.23503E+08
 1.23503E+08
 1.23503E+08
 1.17985E+08
 1.17985E+08
 1.17985E+08
 8.56978E+07
 8.56978E+07
 8.56978E+07
 8.56978E+07
 9.17179E+07
 9.17179E+07
 9.17179E+07
 8.56978E+07
 8.56978E+07
 8.56978E+07
 8.86736E+07
 9.17179E+07
 8.57084E+07
 8.57084E+07
 8.57084E+07
 6.16015E+07
 6.16015E+07
 6.16015E+07
 6.16015E+07
 6.63443E+07
 6.63443E+07
 6.63443E+07
 6.63443E+07
 6.16015E+07
 6.16015E+07
 6.16015E+07
 6.16015E+07
 6.63443E+07
 6.63443E+07
 6.63443E+07
 3.83354E+07
 3.83354E+07
 3.83354E+07
 3.83354E+07
 3.35030E+07
 3.35030E+07
 3.83354E+07
 3.83354E+07
 3.83354E+07
 3.35030E+07
 3.35030E+07
 1.63628E+08
 1.60142E+08
 1.56083E+08
 1.60142E+08
 1.56083E+08
 1.35764E+08
 1.29638E+08
 1.35764E+08
 1.29638E+08
 1.17985E+08