/*--------------------------------*- C++ -*----------------------------------*\
| =========                 |                                                 |
| \\      /  F ield         | OpenFOAM: The Open Source CFD Toolbox           |
|  \\    /   O peration     | Version:  2106                                  |
|   \\  /    A nd           | Website:  www.openfoam.com                      |
|    \\/     M anipulation  |                                                 |
\*---------------------------------------------------------------------------*/
// * * * * * * * * * * * * * * * * * * * * * * * * * * * * * * * * * * * * * //
FoamFile
{
    version         2;
    format          ascii;
    class           dictionary;
    object          controlDict;
}

application     chtMultiRegionSimpleFoam;

startFrom       latestTime;

startTime       0;

stopAt          endTime;

endTime         400;

deltaT          1;

writeControl    timeStep;

writeInterval   100;

purgeWrite      1;

writeFormat     ascii;

writePrecision  8;

writeCompression off;

timeFormat      general;

timePrecision   6;

runTimeModifiable yes;

functions
{
    fieldMinMax1
    {
        type            fieldMinMax;
        libs            ( fieldFunctionObjects );
        region          coolant;
        mode            magnitude;
        log             yes;
        fields          ( U T nut p_rgh );
    }
    avgOutlets
    {
        type            surfaceFieldValue;
        libs            ( fieldFunctionObjects );
        writeControl    timeStep;
        log             yes;
        writeFields     no;
        writeInterval   1;
        region          coolant;
        regionType      patch;
        name            zmax;
        operation       areaAverage;
        fields          ( U T );
    }
}


// ************************************************************************* //
